*SPEF "ieee 1481-1999"
*DESIGN "dsm_and_freq_divider"
*DATE "15:08:45 Wednesday March 04, 2026"
*VENDOR "The OpenROAD Project"
*PROGRAM "OpenROAD"
*VERSION "dcf36133a369abc8f3c5e5738cd4d82e4903c0e0"
*DESIGN_FLOW "NAME_SCOPE LOCAL" "PIN_CAP NONE"
*DIVIDER /
*DELIMITER :
*BUS_DELIMITER []
*T_UNIT 1 NS
*C_UNIT 1 PF
*R_UNIT 1 OHM
*L_UNIT 1 HENRY

*NAME_MAP
*3 en
*4 freq_in
*5 freq_out
*6 rst
*7 sclk
*8 sdata
*9 _000_
*10 _001_
*11 _002_
*12 _003_
*13 _004_
*14 _005_
*15 _006_
*16 _007_
*17 _008_
*18 _009_
*19 _010_
*20 _011_
*21 _012_
*22 _013_
*23 _014_
*24 _015_
*25 _016_
*26 _017_
*27 _018_
*28 _019_
*29 _020_
*30 _021_
*31 _022_
*32 _023_
*33 _024_
*34 _025_
*35 _026_
*36 _027_
*37 _028_
*38 _029_
*39 _030_
*40 _031_
*41 _032_
*42 _033_
*43 _034_
*44 _035_
*45 _036_
*46 _037_
*47 _038_
*48 _039_
*49 _040_
*50 _041_
*51 _042_
*52 _043_
*53 _044_
*54 _045_
*55 _046_
*56 _047_
*57 _048_
*58 _049_
*59 _050_
*60 _051_
*61 _052_
*62 _053_
*63 _054_
*64 _055_
*65 _056_
*66 _057_
*67 _058_
*68 _059_
*69 _060_
*70 _061_
*71 _062_
*72 _063_
*73 _064_
*74 _065_
*75 _066_
*76 _067_
*77 _068_
*78 _069_
*79 _070_
*80 _071_
*81 _072_
*82 _073_
*83 _074_
*84 _075_
*85 _076_
*86 _077_
*87 _078_
*88 _079_
*89 _080_
*90 _081_
*91 _082_
*92 _083_
*93 _084_
*94 _085_
*95 _086_
*96 _087_
*97 _088_
*98 _089_
*99 _090_
*100 _091_
*101 _092_
*102 _093_
*103 _094_
*104 _095_
*105 _096_
*106 _097_
*107 _098_
*108 _099_
*109 _100_
*110 _101_
*111 _102_
*112 _103_
*113 _104_
*114 _105_
*115 _106_
*116 _107_
*117 _108_
*118 _109_
*119 _110_
*120 _111_
*121 _112_
*122 _113_
*123 _114_
*124 _115_
*125 _116_
*126 clknet_0_sclk
*127 clknet_1_0__leaf_sclk
*128 clknet_1_1__leaf_sclk
*129 data_word\[0\]
*130 data_word\[1\]
*131 data_word\[2\]
*132 data_word\[3\]
*133 data_word\[4\]
*134 data_word\[5\]
*135 data_word\[6\]
*136 data_word\[7\]
*137 data_word\[8\]
*138 net1
*139 net10
*140 net11
*141 net2
*142 net3
*143 net4
*144 net5
*145 net6
*146 net7
*147 net8
*148 net9
*149 u_dsm\.integrator\[0\]
*150 u_dsm\.integrator\[1\]
*151 u_dsm\.integrator\[2\]
*152 u_dsm\.integrator\[3\]
*153 u_dsm\.integrator\[4\]
*154 u_dsm\.integrator\[5\]
*155 u_dsm\.integrator\[6\]
*156 u_dsm\.integrator\[7\]
*157 u_dsm\.integrator\[8\]
*158 uut\.b
*159 uut\.c
*160 uut\.clk_jk
*161 uut\.d
*162 uut\.div4\.dff1\.d
*163 uut\.div4\.dff1\.q
*164 uut\.div4\.dff2\.d
*165 uut\.div4\.dff2\.q
*166 uut\.mod7\.jk1\.d_in
*167 uut\.mod7\.jk2\.d_in
*168 uut\.mod7\.jk3\.d_in
*169 uut\.out_stg\.dff_out\.d
*170 uut\.pre45\.d1
*171 uut\.pre45\.d2
*172 uut\.pre45\.d3
*173 uut\.pre45\.ff1\.q
*174 FILLER_0_0
*175 FILLER_0_106
*176 FILLER_0_113
*177 FILLER_0_120
*178 FILLER_0_127
*179 FILLER_0_134
*180 FILLER_0_14
*181 FILLER_0_141
*182 FILLER_0_148
*183 FILLER_0_155
*184 FILLER_0_162
*185 FILLER_0_166
*186 FILLER_0_21
*187 FILLER_0_28
*188 FILLER_0_35
*189 FILLER_0_42
*190 FILLER_0_49
*191 FILLER_0_56
*192 FILLER_0_63
*193 FILLER_0_7
*194 FILLER_0_70
*195 FILLER_0_74
*196 FILLER_0_78
*197 FILLER_0_85
*198 FILLER_0_92
*199 FILLER_0_99
*200 FILLER_10_0
*201 FILLER_10_102
*202 FILLER_10_109
*203 FILLER_10_116
*204 FILLER_10_123
*205 FILLER_10_134
*206 FILLER_10_138
*207 FILLER_10_14
*208 FILLER_10_147
*209 FILLER_10_154
*210 FILLER_10_161
*211 FILLER_10_165
*212 FILLER_10_21
*213 FILLER_10_25
*214 FILLER_10_52
*215 FILLER_10_59
*216 FILLER_10_66
*217 FILLER_10_7
*218 FILLER_10_81
*219 FILLER_10_88
*220 FILLER_10_95
*221 FILLER_11_102
*222 FILLER_11_109
*223 FILLER_11_116
*224 FILLER_11_120
*225 FILLER_11_166
*226 FILLER_11_19
*227 FILLER_11_26
*228 FILLER_11_33
*229 FILLER_11_4
*230 FILLER_11_40
*231 FILLER_11_47
*232 FILLER_11_51
*233 FILLER_11_60
*234 FILLER_11_67
*235 FILLER_11_74
*236 FILLER_11_8
*237 FILLER_11_81
*238 FILLER_11_88
*239 FILLER_11_95
*240 FILLER_12_0
*241 FILLER_12_107
*242 FILLER_12_165
*243 FILLER_12_35
*244 FILLER_12_4
*245 FILLER_12_49
*246 FILLER_12_53
*247 FILLER_12_63
*248 FILLER_12_70
*249 FILLER_13_104
*250 FILLER_13_111
*251 FILLER_13_118
*252 FILLER_13_136
*253 FILLER_13_142
*254 FILLER_13_149
*255 FILLER_13_156
*256 FILLER_13_163
*257 FILLER_13_34
*258 FILLER_13_36
*259 FILLER_13_45
*260 FILLER_13_62
*261 FILLER_13_69
*262 FILLER_13_76
*263 FILLER_13_83
*264 FILLER_13_90
*265 FILLER_13_97
*266 FILLER_14_0
*267 FILLER_14_107
*268 FILLER_14_114
*269 FILLER_14_121
*270 FILLER_14_127
*271 FILLER_14_134
*272 FILLER_14_141
*273 FILLER_14_148
*274 FILLER_14_155
*275 FILLER_14_162
*276 FILLER_14_166
*277 FILLER_14_47
*278 FILLER_14_49
*279 FILLER_14_54
*280 FILLER_14_58
*281 FILLER_14_65
*282 FILLER_14_7
*283 FILLER_15_0
*284 FILLER_15_104
*285 FILLER_15_111
*286 FILLER_15_118
*287 FILLER_15_125
*288 FILLER_15_132
*289 FILLER_15_139
*290 FILLER_15_14
*291 FILLER_15_146
*292 FILLER_15_153
*293 FILLER_15_160
*294 FILLER_15_21
*295 FILLER_15_28
*296 FILLER_15_35
*297 FILLER_15_42
*298 FILLER_15_49
*299 FILLER_15_56
*300 FILLER_15_63
*301 FILLER_15_69
*302 FILLER_15_7
*303 FILLER_15_76
*304 FILLER_15_83
*305 FILLER_15_90
*306 FILLER_15_97
*307 FILLER_16_0
*308 FILLER_16_106
*309 FILLER_16_113
*310 FILLER_16_117
*311 FILLER_16_127
*312 FILLER_16_161
*313 FILLER_16_165
*314 FILLER_16_19
*315 FILLER_16_26
*316 FILLER_16_33
*317 FILLER_16_37
*318 FILLER_16_7
*319 FILLER_16_71
*320 FILLER_16_78
*321 FILLER_16_85
*322 FILLER_16_92
*323 FILLER_16_99
*324 FILLER_17_0
*325 FILLER_17_104
*326 FILLER_17_108
*327 FILLER_17_112
*328 FILLER_17_117
*329 FILLER_17_151
*330 FILLER_17_158
*331 FILLER_17_165
*332 FILLER_17_39
*333 FILLER_17_45
*334 FILLER_17_52
*335 FILLER_17_94
*336 FILLER_18_101
*337 FILLER_18_130
*338 FILLER_18_134
*339 FILLER_18_162
*340 FILLER_18_166
*341 FILLER_18_50
*342 FILLER_18_54
*343 FILLER_18_64
*344 FILLER_19_116
*345 FILLER_19_123
*346 FILLER_19_130
*347 FILLER_19_137
*348 FILLER_19_144
*349 FILLER_19_151
*350 FILLER_19_158
*351 FILLER_19_165
*352 FILLER_19_19
*353 FILLER_19_26
*354 FILLER_19_4
*355 FILLER_19_41
*356 FILLER_19_48
*357 FILLER_19_55
*358 FILLER_19_62
*359 FILLER_19_69
*360 FILLER_19_76
*361 FILLER_19_8
*362 FILLER_19_83
*363 FILLER_1_0
*364 FILLER_1_11
*365 FILLER_1_111
*366 FILLER_1_118
*367 FILLER_1_125
*368 FILLER_1_132
*369 FILLER_1_139
*370 FILLER_1_146
*371 FILLER_1_153
*372 FILLER_1_160
*373 FILLER_1_39
*374 FILLER_1_46
*375 FILLER_1_66
*376 FILLER_1_7
*377 FILLER_1_74
*378 FILLER_1_87
*379 FILLER_1_94
*380 FILLER_20_0
*381 FILLER_20_104
*382 FILLER_20_111
*383 FILLER_20_118
*384 FILLER_20_125
*385 FILLER_20_132
*386 FILLER_20_139
*387 FILLER_20_14
*388 FILLER_20_146
*389 FILLER_20_153
*390 FILLER_20_160
*391 FILLER_20_21
*392 FILLER_20_28
*393 FILLER_20_35
*394 FILLER_20_42
*395 FILLER_20_49
*396 FILLER_20_56
*397 FILLER_20_63
*398 FILLER_20_7
*399 FILLER_20_70
*400 FILLER_20_77
*401 FILLER_20_84
*402 FILLER_20_91
*403 FILLER_20_97
*404 FILLER_2_0
*405 FILLER_2_114
*406 FILLER_2_127
*407 FILLER_2_136
*408 FILLER_2_140
*409 FILLER_2_144
*410 FILLER_2_151
*411 FILLER_2_158
*412 FILLER_2_162
*413 FILLER_2_2
*414 FILLER_2_46
*415 FILLER_2_48
*416 FILLER_3_0
*417 FILLER_3_107
*418 FILLER_3_114
*419 FILLER_3_120
*420 FILLER_3_165
*421 FILLER_3_46
*422 FILLER_3_53
*423 FILLER_3_57
*424 FILLER_3_63
*425 FILLER_3_67
*426 FILLER_3_7
*427 FILLER_3_84
*428 FILLER_3_91
*429 FILLER_3_98
*430 FILLER_4_0
*431 FILLER_4_100
*432 FILLER_4_107
*433 FILLER_4_114
*434 FILLER_4_121
*435 FILLER_4_127
*436 FILLER_4_134
*437 FILLER_4_141
*438 FILLER_4_148
*439 FILLER_4_155
*440 FILLER_4_162
*441 FILLER_4_166
*442 FILLER_4_23
*443 FILLER_4_30
*444 FILLER_4_37
*445 FILLER_4_44
*446 FILLER_4_51
*447 FILLER_4_58
*448 FILLER_4_65
*449 FILLER_4_7
*450 FILLER_4_72
*451 FILLER_4_79
*452 FILLER_4_86
*453 FILLER_4_9
*454 FILLER_4_93
*455 FILLER_5_0
*456 FILLER_5_102
*457 FILLER_5_109
*458 FILLER_5_116
*459 FILLER_5_122
*460 FILLER_5_129
*461 FILLER_5_136
*462 FILLER_5_14
*463 FILLER_5_143
*464 FILLER_5_150
*465 FILLER_5_157
*466 FILLER_5_164
*467 FILLER_5_166
*468 FILLER_5_21
*469 FILLER_5_53
*470 FILLER_5_60
*471 FILLER_5_67
*472 FILLER_5_7
*473 FILLER_5_74
*474 FILLER_5_81
*475 FILLER_5_88
*476 FILLER_5_95
*477 FILLER_6_106
*478 FILLER_6_113
*479 FILLER_6_138
*480 FILLER_6_145
*481 FILLER_6_152
*482 FILLER_6_157
*483 FILLER_6_164
*484 FILLER_6_166
*485 FILLER_6_19
*486 FILLER_6_26
*487 FILLER_6_33
*488 FILLER_6_4
*489 FILLER_6_40
*490 FILLER_6_47
*491 FILLER_6_54
*492 FILLER_6_61
*493 FILLER_6_68
*494 FILLER_6_77
*495 FILLER_6_8
*496 FILLER_6_84
*497 FILLER_6_89
*498 FILLER_6_96
*499 FILLER_7_0
*500 FILLER_7_100
*501 FILLER_7_116
*502 FILLER_7_118
*503 FILLER_7_123
*504 FILLER_7_125
*505 FILLER_7_131
*506 FILLER_7_135
*507 FILLER_7_166
*508 FILLER_7_37
*509 FILLER_7_45
*510 FILLER_7_52
*511 FILLER_7_80
*512 FILLER_7_87
*513 FILLER_7_91
*514 FILLER_7_96
*515 FILLER_8_0
*516 FILLER_8_116
*517 FILLER_8_123
*518 FILLER_8_130
*519 FILLER_8_134
*520 FILLER_8_166
*521 FILLER_8_37
*522 FILLER_8_39
*523 FILLER_8_48
*524 FILLER_8_64
*525 FILLER_8_66
*526 FILLER_8_72
*527 FILLER_9_0
*528 FILLER_9_100
*529 FILLER_9_107
*530 FILLER_9_114
*531 FILLER_9_121
*532 FILLER_9_128
*533 FILLER_9_135
*534 FILLER_9_145
*535 FILLER_9_152
*536 FILLER_9_159
*537 FILLER_9_166
*538 FILLER_9_19
*539 FILLER_9_26
*540 FILLER_9_33
*541 FILLER_9_40
*542 FILLER_9_47
*543 FILLER_9_67
*544 FILLER_9_69
*545 FILLER_9_7
*546 FILLER_9_79
*547 FILLER_9_86
*548 FILLER_9_93
*549 _117_
*550 _118_
*551 _119_
*552 _120_
*553 _121_
*554 _122_
*555 _123_
*556 _124_
*557 _125_
*558 _126_
*559 _127_
*560 _128_
*561 _129_
*562 _130_
*563 _131_
*564 _132_
*565 _133_
*566 _134_
*567 _135_
*568 _136_
*569 _137_
*570 _138_
*571 _139_
*572 _140_
*573 _141_
*574 _142_
*575 _143_
*576 _144_
*577 _145_
*578 _146_
*579 _147_
*580 _148_
*581 _149_
*582 _150_
*583 _151_
*584 _152_
*585 _153_
*586 _154_
*587 _155_
*588 _156_
*589 _157_
*590 _158_
*591 _159_
*592 _160_
*593 _161_
*594 _162_
*595 _163_
*596 _164_
*597 _165_
*598 _166_
*599 _167_
*600 _168_
*601 _169_
*602 _170_
*603 _171_
*604 _172_
*605 _173_
*606 _174_
*607 _175_
*608 _176_
*609 _177_
*610 _178_
*611 _179_
*612 _180_
*613 _181_
*614 _182_
*615 _183_
*616 _184_
*617 _185_
*618 _186_
*619 _187_
*620 _188_
*621 _189_
*622 _190_
*623 _191_
*624 _192_
*625 _193_
*626 _194_
*627 _195_
*628 _196_
*629 _197_
*630 _198_
*631 _199_
*632 _200_
*633 _201_
*634 _202_
*635 _203_
*636 _204_
*637 _205_
*638 _206_
*639 _207_
*640 _208_
*641 _209_
*642 _210_
*643 _211_
*644 _212_
*645 _213_
*646 _214_
*647 _215_
*648 _216_
*649 _217_
*650 _218_
*651 _219_
*652 _220_
*653 _221_
*654 _222_
*655 _223_
*656 _224_
*657 _225_
*658 _226_
*659 _227_
*660 _228_
*661 _229_
*662 _230_
*663 _231_
*664 _232_
*665 _233_
*666 _234_
*667 _235_
*668 _236_
*669 _237_
*670 _238_
*671 _239_
*672 _240_
*673 _241_
*674 _242_
*675 _243_
*676 _244_
*677 _245_
*678 _246_
*679 _247_
*680 _248_
*681 _249_
*682 _250_
*683 _251_
*684 _252_
*685 _253_
*686 _254_
*687 _255_
*688 _256_
*689 _257_
*690 _258_
*691 _259_
*692 _260_
*693 _261_
*694 _262_
*695 _263_
*696 _264_
*697 _265_
*698 _266_
*699 _267_
*700 _268_
*701 clkbuf_0_sclk
*702 clkbuf_1_0__f_sclk
*703 clkbuf_1_1__f_sclk
*704 clkload0
*705 fanout10
*706 fanout11
*707 fanout5
*708 fanout6
*709 fanout7
*710 fanout8
*711 fanout9
*712 input1
*713 input2
*714 input3
*715 output4

*PORTS
en I
freq_in I
freq_out O
rst I
sclk I
sdata I

*D_NET *3 0.000500193
*CONN
*P en I
*I *712:A I *D sg13g2_buf_1
*CAP
1 en 0.000250096
2 *712:A 0.000250096
3 *712:A *7:14 0
*RES
1 en *712:A 43.1621 
*END

*D_NET *4 0.00250277
*CONN
*P freq_in I
*I *699:CLK I *D sg13g2_dfrbpq_1
*CAP
1 freq_in 0.000766864
2 *699:CLK 0.00047682
3 *4:11 0.00124368
4 *699:CLK *705:A 0
5 *699:CLK *162:10 1.54008e-05
*RES
1 freq_in *4:11 49.6202 
2 *4:11 *699:CLK 25.5105 
*END

*D_NET *5 0.000534277
*CONN
*P freq_out O
*I *715:X O *D sg13g2_buf_1
*CAP
1 freq_out 0.000267138
2 *715:X 0.000267138
*RES
1 *715:X freq_out 43.502 
*END

*D_NET *6 0.000695897
*CONN
*P rst I
*I *713:A I *D sg13g2_buf_1
*CAP
1 rst 0.000347949
2 *713:A 0.000347949
3 *713:A *141:6 0
4 *713:A *141:28 0
*RES
1 rst *713:A 44.1303 
*END

*D_NET *7 0.00196209
*CONN
*P sclk I
*I *701:A I *D sg13g2_buf_16
*CAP
1 sclk 0.000112553
2 *701:A 6.91411e-05
3 *7:14 0.00086849
4 *7:12 0.000911902
5 *7:14 *138:8 0
6 *712:A *7:14 0
*RES
1 sclk *7:12 41.1639 
2 *7:12 *7:14 9.991 
3 *7:14 *701:A 40.7519 
*END

*D_NET *8 0.000779207
*CONN
*P sdata I
*I *714:A I *D sg13g2_buf_1
*CAP
1 sdata 0.000389603
2 *714:A 0.000389603
3 *714:A *142:10 0
4 *714:A *147:27 0
*RES
1 sdata *714:A 44.5629 
*END

*D_NET *9 0.000386684
*CONN
*I *683:D I *D sg13g2_dfrbpq_1
*I *642:Y O *D sg13g2_xnor2_1
*CAP
1 *683:D 0.000193342
2 *642:Y 0.000193342
3 *683:D *569:A_N 0
4 *683:D *642:A 0
5 *683:D *683:RESET_B 0
*RES
1 *642:Y *683:D 41.8849 
*END

*D_NET *10 0.00133539
*CONN
*I *684:D I *D sg13g2_dfrbpq_1
*I *574:Y O *D sg13g2_xnor2_1
*CAP
1 *684:D 0
2 *574:Y 0.00032454
3 *10:10 0.00032454
4 *10:10 *574:B 0
5 *10:10 *575:A 0
6 *10:10 *577:A2 0
7 *10:10 *28:8 0.000183935
8 *10:10 *146:87 0.000502376
*RES
1 *574:Y *10:10 43.9449 
2 *10:10 *684:D 40 
*END

*D_NET *11 0.000725051
*CONN
*I *685:D I *D sg13g2_dfrbpq_1
*I *583:X O *D sg13g2_xor2_1
*CAP
1 *685:D 0.000246216
2 *583:X 0.00011631
3 *11:8 0.000362526
4 *685:D *64:23 0
5 *685:D *140:102 0
6 *11:8 *64:23 0
7 *11:8 *151:8 0
*RES
1 *583:X *11:8 41.339 
2 *11:8 *685:D 42.4823 
*END

*D_NET *12 0.000585899
*CONN
*I *686:D I *D sg13g2_dfrbpq_1
*I *591:Y O *D sg13g2_xnor2_1
*CAP
1 *686:D 0.00029295
2 *591:Y 0.00029295
3 *686:D *686:RESET_B 0
4 *686:D *64:23 0
5 *686:D *140:102 0
*RES
1 *591:Y *686:D 42.9973 
*END

*D_NET *13 0.000159526
*CONN
*I *687:D I *D sg13g2_dfrbpq_1
*I *604:Y O *D sg13g2_xnor2_1
*CAP
1 *687:D 7.97631e-05
2 *604:Y 7.97631e-05
3 *687:D *687:RESET_B 0
4 *687:D *81:12 0
*RES
1 *604:Y *687:D 40.9167 
*END

*D_NET *14 0.000719926
*CONN
*I *688:D I *D sg13g2_dfrbpq_1
*I *614:Y O *D sg13g2_xnor2_1
*CAP
1 *688:D 0.000359963
2 *614:Y 0.000359963
3 *688:D *707:A 0
*RES
1 *614:Y *688:D 43.914 
*END

*D_NET *15 0.000258897
*CONN
*I *689:D I *D sg13g2_dfrbpq_1
*I *626:X O *D sg13g2_xor2_1
*CAP
1 *689:D 0
2 *626:X 0.000129449
3 *15:8 0.000129449
4 *15:8 *155:12 0
*RES
1 *626:X *15:8 41.5862 
2 *15:8 *689:D 40 
*END

*D_NET *16 0.000194541
*CONN
*I *690:D I *D sg13g2_dfrbpq_1
*I *635:Y O *D sg13g2_xnor2_1
*CAP
1 *690:D 7.3328e-05
2 *635:Y 7.3328e-05
3 *690:D *635:B 4.7885e-05
4 *690:D *664:A 0
5 *690:D *690:RESET_B 0
*RES
1 *635:Y *690:D 40.9167 
*END

*D_NET *17 0.000893586
*CONN
*I *691:D I *D sg13g2_dfrbpq_1
*I *641:Y O *D sg13g2_xnor2_1
*CAP
1 *691:D 0
2 *641:Y 0.000329015
3 *17:10 0.000329015
4 *17:10 *148:23 0.000235556
5 *17:10 *156:14 0
6 *17:10 *157:12 0
*RES
1 *641:Y *17:10 43.3269 
2 *17:10 *691:D 40 
*END

*D_NET *18 0.00151089
*CONN
*I *674:RESET_B I *D sg13g2_dfrbpq_1
*I *647:Y O *D sg13g2_inv_1
*CAP
1 *674:RESET_B 0
2 *647:Y 0.00030718
3 *18:8 0.00030718
4 *18:8 *656:A 0.00018211
5 *18:8 *147:44 0.000714418
*RES
1 *647:Y *18:8 44.0582 
2 *18:8 *674:RESET_B 40 
*END

*D_NET *19 0.000748617
*CONN
*I *675:RESET_B I *D sg13g2_dfrbpq_1
*I *648:Y O *D sg13g2_inv_1
*CAP
1 *675:RESET_B 0
2 *648:Y 0.000374309
3 *19:10 0.000374309
4 *19:10 *556:A0 0
5 *19:10 *648:A 0
6 *19:10 *675:D 0
7 *19:10 *130:40 0
8 *19:10 *147:44 0
*RES
1 *648:Y *19:10 44.4702 
2 *19:10 *675:RESET_B 40 
*END

*D_NET *20 0.000363098
*CONN
*I *676:RESET_B I *D sg13g2_dfrbpq_1
*I *649:Y O *D sg13g2_inv_1
*CAP
1 *676:RESET_B 0.000181549
2 *649:Y 0.000181549
3 *676:RESET_B *649:A 0
4 *676:RESET_B *127:31 0
5 *676:RESET_B *127:33 0
*RES
1 *649:Y *676:RESET_B 41.9982 
*END

*D_NET *21 0.000451078
*CONN
*I *677:RESET_B I *D sg13g2_dfrbpq_1
*I *650:Y O *D sg13g2_inv_1
*CAP
1 *677:RESET_B 0.000185368
2 *650:Y 0.000185368
3 *677:RESET_B *677:D 0
4 *677:RESET_B *678:RESET_B 0
5 *677:RESET_B *132:27 8.0342e-05
6 *677:RESET_B *147:23 0
*RES
1 *650:Y *677:RESET_B 42.1218 
*END

*D_NET *22 0.000450862
*CONN
*I *678:RESET_B I *D sg13g2_dfrbpq_1
*I *651:Y O *D sg13g2_inv_1
*CAP
1 *678:RESET_B 0.000185246
2 *651:Y 0.000185246
3 *678:RESET_B *678:D 0
4 *678:RESET_B *132:27 8.03692e-05
5 *678:RESET_B *147:23 0
6 *677:RESET_B *678:RESET_B 0
*RES
1 *651:Y *678:RESET_B 42.1218 
*END

*D_NET *23 0.00034497
*CONN
*I *679:RESET_B I *D sg13g2_dfrbpq_1
*I *652:Y O *D sg13g2_inv_1
*CAP
1 *679:RESET_B 0.000172485
2 *652:Y 0.000172485
3 *679:RESET_B *551:A1 0
4 *679:RESET_B *552:A0 0
5 *679:RESET_B *679:D 0
6 *679:RESET_B *147:17 0
7 *679:RESET_B *147:21 0
*RES
1 *652:Y *679:RESET_B 41.9055 
*END

*D_NET *24 0.000457409
*CONN
*I *680:RESET_B I *D sg13g2_dfrbpq_1
*I *653:Y O *D sg13g2_inv_1
*CAP
1 *680:RESET_B 0
2 *653:Y 0.000228704
3 *24:8 0.000228704
*RES
1 *653:Y *24:8 42.8222 
2 *24:8 *680:RESET_B 40 
*END

*D_NET *25 0.000866033
*CONN
*I *681:RESET_B I *D sg13g2_dfrbpq_1
*I *654:Y O *D sg13g2_inv_1
*CAP
1 *681:RESET_B 0.000145366
2 *654:Y 0.000182887
3 *25:8 0.000328253
4 *681:RESET_B *550:A0 0.000209526
5 *681:RESET_B *682:D 0
6 *25:8 *26:10 0
7 *25:8 *148:23 0
*RES
1 *654:Y *25:8 41.5862 
2 *25:8 *681:RESET_B 41.4008 
*END

*D_NET *26 0.000890205
*CONN
*I *682:RESET_B I *D sg13g2_dfrbpq_1
*I *655:Y O *D sg13g2_inv_1
*CAP
1 *682:RESET_B 0
2 *655:Y 0.000437375
3 *26:10 0.000437375
4 *26:10 *655:A 1.54556e-05
5 *26:10 *710:A 0
6 *25:8 *26:10 0
*RES
1 *655:Y *26:10 44.223 
2 *26:10 *682:RESET_B 40 
*END

*D_NET *27 0.000331649
*CONN
*I *683:RESET_B I *D sg13g2_dfrbpq_1
*I *656:Y O *D sg13g2_inv_1
*CAP
1 *683:RESET_B 0.000165824
2 *656:Y 0.000165824
3 *683:RESET_B *569:A_N 0
4 *683:RESET_B *642:B 0
5 *683:D *683:RESET_B 0
*RES
1 *656:Y *683:RESET_B 41.9055 
*END

*D_NET *28 0.000622405
*CONN
*I *684:RESET_B I *D sg13g2_dfrbpq_1
*I *657:Y O *D sg13g2_inv_1
*CAP
1 *684:RESET_B 3.04198e-05
2 *657:Y 0.000164944
3 *28:8 0.000195364
4 *684:RESET_B *576:B 4.77425e-05
5 *28:8 *146:87 0
6 *10:10 *28:8 0.000183935
*RES
1 *657:Y *28:8 41.8334 
2 *28:8 *684:RESET_B 40.3193 
*END

*D_NET *29 0.000526208
*CONN
*I *685:RESET_B I *D sg13g2_dfrbpq_1
*I *658:Y O *D sg13g2_inv_1
*CAP
1 *685:RESET_B 0.000142041
2 *658:Y 0.000142041
3 *685:RESET_B *140:102 0.000242125
4 *685:RESET_B *146:18 0
*RES
1 *658:Y *685:RESET_B 41.6171 
*END

*D_NET *30 0.000468038
*CONN
*I *686:RESET_B I *D sg13g2_dfrbpq_1
*I *659:Y O *D sg13g2_inv_1
*CAP
1 *686:RESET_B 0.000193977
2 *659:Y 0.000193977
3 *686:RESET_B *692:D 0
4 *686:RESET_B *140:59 8.00842e-05
5 *686:D *686:RESET_B 0
*RES
1 *659:Y *686:RESET_B 42.1218 
*END

*D_NET *31 0.000347171
*CONN
*I *687:RESET_B I *D sg13g2_dfrbpq_1
*I *660:Y O *D sg13g2_inv_1
*CAP
1 *687:RESET_B 0.000165885
2 *660:Y 0.000165885
3 *687:RESET_B *688:CLK 1.54008e-05
4 *687:RESET_B *81:12 0
5 *687:RESET_B *146:77 0
6 *687:D *687:RESET_B 0
*RES
1 *660:Y *687:RESET_B 41.4008 
*END

*D_NET *32 0.000317363
*CONN
*I *688:RESET_B I *D sg13g2_dfrbpq_1
*I *661:Y O *D sg13g2_inv_1
*CAP
1 *688:RESET_B 0.000158682
2 *661:Y 0.000158682
3 *688:RESET_B *661:A 0
4 *688:RESET_B *688:CLK 0
*RES
1 *661:Y *688:RESET_B 41.9055 
*END

*D_NET *33 0.000303216
*CONN
*I *689:RESET_B I *D sg13g2_dfrbpq_1
*I *662:Y O *D sg13g2_inv_1
*CAP
1 *689:RESET_B 0.000151608
2 *662:Y 0.000151608
3 *689:RESET_B *662:A 0
4 *689:RESET_B *143:27 0
*RES
1 *662:Y *689:RESET_B 41.9055 
*END

*D_NET *34 0.000539999
*CONN
*I *690:RESET_B I *D sg13g2_dfrbpq_1
*I *663:Y O *D sg13g2_inv_1
*CAP
1 *690:RESET_B 0.000269999
2 *663:Y 0.000269999
3 *690:RESET_B *664:A 0
4 *690:RESET_B *691:RESET_B 0
5 *690:D *690:RESET_B 0
*RES
1 *663:Y *690:RESET_B 42.8428 
*END

*D_NET *35 0.000326549
*CONN
*I *691:RESET_B I *D sg13g2_dfrbpq_1
*I *664:Y O *D sg13g2_inv_1
*CAP
1 *691:RESET_B 0.000163274
2 *664:Y 0.000163274
3 *691:RESET_B *691:CLK 0
4 *690:RESET_B *691:RESET_B 0
*RES
1 *664:Y *691:RESET_B 41.9055 
*END

*D_NET *36 0.000527736
*CONN
*I *692:RESET_B I *D sg13g2_dfrbpq_1
*I *665:Y O *D sg13g2_inv_1
*CAP
1 *692:RESET_B 0.00014269
2 *665:Y 0.00014269
3 *692:RESET_B *140:59 0.000242355
4 *692:RESET_B *146:45 0
5 *692:RESET_B *146:60 0
*RES
1 *665:Y *692:RESET_B 41.6171 
*END

*D_NET *37 0.000348894
*CONN
*I *693:RESET_B I *D sg13g2_dfrbpq_1
*I *666:Y O *D sg13g2_inv_1
*CAP
1 *693:RESET_B 0.000150491
2 *666:Y 0.000150491
3 *693:RESET_B *666:A 0
4 *693:RESET_B *145:103 4.79124e-05
*RES
1 *666:Y *693:RESET_B 41.9055 
*END

*D_NET *38 0.000931958
*CONN
*I *694:RESET_B I *D sg13g2_dfrbpq_1
*I *667:Y O *D sg13g2_inv_1
*CAP
1 *694:RESET_B 0.000122585
2 *667:Y 8.67716e-05
3 *38:8 0.000209357
4 *694:RESET_B *695:RESET_B 1.54008e-05
5 *694:RESET_B *140:46 0
6 *694:RESET_B *161:51 0.000209756
7 *38:8 *159:8 0
8 *38:8 *160:32 0.000288087
9 *38:8 *167:10 0
*RES
1 *667:Y *38:8 41.339 
2 *38:8 *694:RESET_B 41.4008 
*END

*D_NET *39 0.00109438
*CONN
*I *695:RESET_B I *D sg13g2_dfrbpq_1
*I *668:Y O *D sg13g2_inv_1
*CAP
1 *695:RESET_B 0.000257394
2 *668:Y 0.000257394
3 *695:RESET_B *139:83 0.000257383
4 *695:RESET_B *140:46 0.000306809
5 *694:RESET_B *695:RESET_B 1.54008e-05
*RES
1 *668:Y *695:RESET_B 43.1827 
*END

*D_NET *40 0.000423342
*CONN
*I *696:RESET_B I *D sg13g2_dfrbpq_1
*I *669:Y O *D sg13g2_inv_1
*CAP
1 *696:RESET_B 0.000211671
2 *669:Y 0.000211671
3 *696:RESET_B *696:D 0
4 *696:RESET_B *708:A 0
*RES
1 *669:Y *696:RESET_B 42.1218 
*END

*D_NET *41 0.000938974
*CONN
*I *697:RESET_B I *D sg13g2_dfrbpq_1
*I *670:Y O *D sg13g2_inv_1
*CAP
1 *697:RESET_B 0.000174968
2 *670:Y 0.000256954
3 *41:8 0.000431923
4 *697:RESET_B *697:D 0
5 *697:RESET_B *697:CLK 0
6 *41:8 *165:34 7.51285e-05
7 *41:8 *171:8 0
*RES
1 *670:Y *41:8 42.575 
2 *41:8 *697:RESET_B 41.8334 
*END

*D_NET *42 0.000312666
*CONN
*I *698:RESET_B I *D sg13g2_dfrbpq_1
*I *671:Y O *D sg13g2_inv_1
*CAP
1 *698:RESET_B 0
2 *671:Y 0.000156333
3 *42:8 0.000156333
4 *42:8 *140:38 0
5 *42:8 *172:16 0
*RES
1 *671:Y *42:8 41.5862 
2 *42:8 *698:RESET_B 40 
*END

*D_NET *43 0.000866074
*CONN
*I *699:RESET_B I *D sg13g2_dfrbpq_1
*I *672:Y O *D sg13g2_inv_1
*CAP
1 *699:RESET_B 0.000278826
2 *672:Y 0.000278826
3 *699:RESET_B *139:12 0.000308421
*RES
1 *672:Y *699:RESET_B 43.0591 
*END

*D_NET *44 0.00035912
*CONN
*I *700:RESET_B I *D sg13g2_dfrbpq_1
*I *673:Y O *D sg13g2_inv_1
*CAP
1 *700:RESET_B 0.00017956
2 *673:Y 0.00017956
3 *700:RESET_B *700:D 0
*RES
1 *673:Y *700:RESET_B 41.751 
*END

*D_NET *45 0.000562187
*CONN
*I *674:D I *D sg13g2_dfrbpq_1
*I *557:X O *D sg13g2_mux2_1
*CAP
1 *674:D 0.000208656
2 *557:X 0.000208656
3 *674:D *555:A1 0
4 *674:D *649:A 0.000144875
5 *674:D *676:D 0
*RES
1 *557:X *674:D 42.2094 
*END

*D_NET *46 0.000942114
*CONN
*I *675:D I *D sg13g2_dfrbpq_1
*I *556:X O *D sg13g2_mux2_1
*CAP
1 *675:D 0.000207195
2 *556:X 0.000131726
3 *46:8 0.000338921
4 *675:D *556:A0 8.01116e-05
5 *675:D *556:S 0
6 *46:8 *129:37 0.00018416
7 *19:10 *675:D 0
*RES
1 *556:X *46:8 41.339 
2 *46:8 *675:D 42.0497 
*END

*D_NET *47 0.00049651
*CONN
*I *676:D I *D sg13g2_dfrbpq_1
*I *555:X O *D sg13g2_mux2_1
*CAP
1 *676:D 0.000248255
2 *555:X 0.000248255
3 *676:D *555:A1 0
4 *676:D *649:A 0
5 *676:D *131:49 0
6 *676:D *138:30 0
7 *674:D *676:D 0
*RES
1 *555:X *676:D 42.3999 
*END

*D_NET *48 0.00038762
*CONN
*I *677:D I *D sg13g2_dfrbpq_1
*I *554:X O *D sg13g2_mux2_1
*CAP
1 *677:D 0.00019381
2 *554:X 0.00019381
3 *677:D *554:A0 0
4 *677:D *132:27 0
5 *677:D *147:23 0
6 *677:D *147:27 0
7 *677:RESET_B *677:D 0
*RES
1 *554:X *677:D 41.9673 
*END

*D_NET *49 0.000372848
*CONN
*I *678:D I *D sg13g2_dfrbpq_1
*I *553:X O *D sg13g2_mux2_1
*CAP
1 *678:D 0.000186424
2 *553:X 0.000186424
3 *678:D *132:27 0
4 *678:D *133:12 0
5 *678:D *147:21 0
6 *678:D *147:23 0
7 *678:RESET_B *678:D 0
*RES
1 *553:X *678:D 41.9673 
*END

*D_NET *50 0.000466789
*CONN
*I *679:D I *D sg13g2_dfrbpq_1
*I *552:X O *D sg13g2_mux2_1
*CAP
1 *679:D 0.000233395
2 *552:X 0.000233395
3 *679:D *552:A0 0
4 *679:D *552:A1 0
5 *679:D *147:21 0
6 *679:RESET_B *679:D 0
*RES
1 *552:X *679:D 42.3999 
*END

*D_NET *51 0.00045604
*CONN
*I *680:D I *D sg13g2_dfrbpq_1
*I *551:X O *D sg13g2_mux2_1
*CAP
1 *680:D 0.00022802
2 *551:X 0.00022802
3 *680:D *550:A1 0
4 *680:D *551:A1 0
5 *680:D *710:A 0
6 *680:D *135:12 0
*RES
1 *551:X *680:D 42.6471 
*END

*D_NET *52 0.000848166
*CONN
*I *681:D I *D sg13g2_dfrbpq_1
*I *550:X O *D sg13g2_mux2_1
*CAP
1 *681:D 0.000424083
2 *550:X 0.000424083
3 *681:D *550:A0 0
4 *681:D *654:A 0
5 *681:D *682:D 0
6 *681:D *710:A 0
*RES
1 *550:X *681:D 43.0324 
*END

*D_NET *53 0.00076226
*CONN
*I *682:D I *D sg13g2_dfrbpq_1
*I *549:X O *D sg13g2_mux2_1
*CAP
1 *682:D 0.00038113
2 *549:X 0.00038113
3 *682:D *549:A1 0
4 *682:D *550:A0 0
5 *682:D *710:A 0
6 *682:D *141:28 0
7 *681:RESET_B *682:D 0
8 *681:D *682:D 0
*RES
1 *549:X *682:D 43.7286 
*END

*D_NET *54 0.00104919
*CONN
*I *566:B1 I *D sg13g2_o21ai_1
*I *565:Y O *D sg13g2_nor3_1
*CAP
1 *566:B1 0.000463692
2 *565:Y 0.000463692
3 *566:B1 *560:A1 0.000121802
4 *566:B1 *561:B1 0
5 *566:B1 *567:B 0
6 *566:B1 *669:A 0
7 *566:B1 *693:CLK 0
8 *566:B1 *139:67 0
9 *566:B1 *145:16 0
*RES
1 *565:Y *566:B1 44.6144 
*END

*D_NET *55 0.00128225
*CONN
*I *567:B I *D sg13g2_and2_1
*I *566:Y O *D sg13g2_o21ai_1
*CAP
1 *567:B 0.000568634
2 *566:Y 0.000568634
3 *567:B *669:A 0
4 *567:B *696:D 0
5 *567:B *708:A 0
6 *567:B *145:10 0.000144985
7 *566:B1 *567:B 0
*RES
1 *566:Y *567:B 45.6444 
*END

*D_NET *56 0.00144086
*CONN
*I *569:A_N I *D sg13g2_nand2b_1
*I *642:B I *D sg13g2_xnor2_1
*I *568:X O *D sg13g2_xor2_1
*CAP
1 *569:A_N 0.000320948
2 *642:B 0.000129451
3 *568:X 2.77263e-05
4 *56:6 0.000478126
5 *569:A_N *569:B 0.000404267
6 *569:A_N *642:A 0
7 *642:B *568:B 0
8 *642:B *642:A 8.0342e-05
9 *683:RESET_B *569:A_N 0
10 *683:RESET_B *642:B 0
11 *683:D *569:A_N 0
*RES
1 *568:X *56:6 20.3502 
2 *56:6 *642:B 21.6274 
3 *56:6 *569:A_N 23.5638 
*END

*D_NET *57 0.00271309
*CONN
*I *574:A I *D sg13g2_xnor2_1
*I *575:A I *D sg13g2_inv_1
*I *569:Y O *D sg13g2_nand2b_1
*CAP
1 *574:A 0
2 *575:A 0.000668787
3 *569:Y 0.000324733
4 *57:12 0.000668787
5 *57:10 0.000324733
6 *575:A *570:B 4.77425e-05
7 *575:A *577:A2 0
8 *575:A *577:A1 0
9 *575:A *58:12 0
10 *575:A *144:16 0.000598222
11 *575:A *144:20 8.00842e-05
12 *57:10 *569:B 0
13 *57:10 *144:16 0
14 *10:10 *575:A 0
*RES
1 *569:Y *57:10 43.1106 
2 *57:10 *57:12 20 
3 *57:12 *575:A 27.2512 
4 *57:12 *574:A 20 
*END

*D_NET *58 0.00224516
*CONN
*I *573:A I *D sg13g2_xor2_1
*I *576:A I *D sg13g2_nor2_1
*I *570:Y O *D sg13g2_nor2_1
*CAP
1 *573:A 0.000474749
2 *576:A 0
3 *570:Y 0.000219417
4 *58:14 0.000474749
5 *58:12 0.000219417
6 *573:A *576:B 0
7 *573:A *657:A 0
8 *573:A *149:12 0
9 *58:12 *570:B 1.54008e-05
10 *58:12 *130:8 0.000554078
11 *58:12 *146:87 0
12 *58:12 *149:12 0.000287343
13 *575:A *58:12 0
*RES
1 *570:Y *58:12 43.4608 
2 *58:12 *58:14 20 
3 *58:14 *576:A 20 
4 *58:14 *573:A 24.4496 
*END

*D_NET *59 0.00121802
*CONN
*I *579:A2 I *D sg13g2_a21oi_1
*I *572:B I *D sg13g2_xnor2_1
*I *571:X O *D sg13g2_xor2_1
*CAP
1 *579:A2 0.000119008
2 *572:B 0.000328955
3 *571:X 0
4 *59:4 0.000447963
5 *572:B *572:A 0.000241983
6 *572:B *579:A1 0
7 *572:B *66:10 0
8 *572:B *146:77 0
9 *572:B *146:87 0
10 *579:A2 *579:A1 8.01118e-05
*RES
1 *571:X *59:4 20 
2 *59:4 *572:B 23.5638 
3 *59:4 *579:A2 21.3802 
*END

*D_NET *60 0.00339275
*CONN
*I *576:B I *D sg13g2_nor2_1
*I *573:B I *D sg13g2_xor2_1
*I *572:Y O *D sg13g2_xnor2_1
*CAP
1 *576:B 0.000435216
2 *573:B 0.000121167
3 *572:Y 0.000140733
4 *60:8 0.000697116
5 *573:B *657:A 4.77702e-05
6 *573:B *61:8 0
7 *573:B *131:10 0.000453678
8 *573:B *140:84 0.000399906
9 *576:B *146:77 0
10 *576:B *146:87 0
11 *60:8 *131:10 0.000648515
12 *60:8 *140:84 0.000400904
13 *573:A *576:B 0
14 *684:RESET_B *576:B 4.77425e-05
*RES
1 *572:Y *60:8 43.0694 
2 *60:8 *573:B 42.3999 
3 *60:8 *576:B 43.9261 
*END

*D_NET *61 0.00131459
*CONN
*I *574:B I *D sg13g2_xnor2_1
*I *577:A2 I *D sg13g2_a21o_2
*I *573:X O *D sg13g2_xor2_1
*CAP
1 *574:B 0.000197069
2 *577:A2 0.000284943
3 *573:X 0.000174322
4 *61:8 0.000656333
5 *577:A2 *577:A1 1.9251e-06
6 *577:A2 *657:A 0
7 *577:A2 *149:12 0
8 *61:8 *657:A 0
9 *61:8 *144:16 0
10 *61:8 *149:12 0
11 *573:B *61:8 0
12 *575:A *577:A2 0
13 *10:10 *574:B 0
14 *10:10 *577:A2 0
*RES
1 *573:X *61:8 22.2145 
2 *61:8 *577:A2 22.6986 
3 *61:8 *574:B 22.2454 
*END

*D_NET *62 0.00033705
*CONN
*I *577:A1 I *D sg13g2_a21o_2
*I *575:Y O *D sg13g2_inv_1
*CAP
1 *577:A1 0.000150429
2 *575:Y 0.000150429
3 *577:A1 *577:B1 3.42668e-05
4 *575:A *577:A1 0
5 *577:A2 *577:A1 1.9251e-06
*RES
1 *575:Y *577:A1 41.527 
*END

*D_NET *63 0.000485347
*CONN
*I *577:B1 I *D sg13g2_a21o_2
*I *576:Y O *D sg13g2_nor2_1
*CAP
1 *577:B1 0.00022554
2 *576:Y 0.00022554
3 *577:B1 *149:12 0
4 *577:A1 *577:B1 3.42668e-05
*RES
1 *576:Y *577:B1 42.8943 
*END

*D_NET *64 0.00955355
*CONN
*I *590:A1 I *D sg13g2_a21oi_1
*I *612:A1 I *D sg13g2_a21o_1
*I *596:A1 I *D sg13g2_a21oi_2
*I *583:A I *D sg13g2_xor2_1
*I *577:X O *D sg13g2_a21o_2
*CAP
1 *590:A1 0
2 *612:A1 0
3 *596:A1 9.88982e-05
4 *583:A 0.000203926
5 *577:X 0
6 *64:29 0.00029055
7 *64:27 0.000304685
8 *64:23 0.00134331
9 *64:8 0.0022713
10 *64:6 0.000837101
11 *583:A *583:B 0
12 *583:A *589:B 0
13 *583:A *67:14 0
14 *596:A1 *596:A2 0.000555822
15 *596:A1 *140:78 0.000555822
16 *64:8 *578:B 0
17 *64:8 *144:35 0.0011981
18 *64:23 *581:A 4.77425e-05
19 *64:23 *583:B 0
20 *64:23 *590:A2 0
21 *64:23 *591:B 0
22 *64:23 *69:6 0
23 *64:23 *74:21 8.02269e-05
24 *64:23 *140:102 0
25 *64:27 *140:78 0.00034079
26 *64:27 *152:14 0
27 *64:29 *596:A2 5.30319e-05
28 *64:29 *77:16 0.000552591
29 *64:29 *140:78 0.000819652
30 *64:29 *152:14 0
31 *685:D *64:23 0
32 *686:D *64:23 0
33 *11:8 *64:23 0
*RES
1 *577:X *64:6 40 
2 *64:6 *64:8 11.9686 
3 *64:8 *583:A 42.4823 
4 *64:8 *64:23 34.0183 
5 *64:23 *64:27 21.5862 
6 *64:27 *64:29 3.811 
7 *64:29 *596:A1 42.575 
8 *64:29 *612:A1 40 
9 *64:27 *590:A1 40 
*END

*D_NET *65 0.000591
*CONN
*I *579:B1 I *D sg13g2_a21oi_1
*I *578:X O *D sg13g2_and2_1
*CAP
1 *579:B1 0.000223021
2 *578:X 0.000223021
3 *579:B1 *578:B 0
4 *579:B1 *130:29 0.000144958
*RES
1 *578:X *579:B1 42.3484 
*END

*D_NET *66 0.00208179
*CONN
*I *582:A I *D sg13g2_xor2_1
*I *589:A I *D sg13g2_nor2_1
*I *579:Y O *D sg13g2_a21oi_1
*CAP
1 *582:A 0.000240453
2 *589:A 0
3 *579:Y 0.000485764
4 *66:12 0.000240453
5 *66:10 0.000485764
6 *582:A *585:B1 0
7 *582:A *67:14 0
8 *582:A *75:12 0.000307099