* Extracted by KLayout with SG13G2 LVS runset on : 26/03/2026 17:50

.SUBCKT dsm_and_freq_divider 1 2 3 4 8 9 11 14 17 20 22 23 29 30 31 32 33 41 59
+ 65 74 78 81 86 87 89 90 106 107 108 111 112 114 115 132 148 151 162 165 166
+ 167 168 202 203 210 212 213 215 217 218 220 222 223 227 229 232 246 247 257
+ 258 260 265 267 268 270 272 274 275 277 286 287 288 289 320 327 328 335 345
+ 346 347 348 349 354 394 395 396 397 399 400 414 415 416 417 418 419 422 423
+ 424 431 434 436 437 439 443 444 445 446 460 461 462 463 483 490 492 493 500
+ 530 531 550 551 560 563 565 566 570 571 574 575 596 597 599 601 603 604 629
+ 632 634 635 636 637 638 639 646 648 649 651 669 670 683 685 690 692 693 696
+ 701 702 703 708 709 710 714 715 719 720 721 725 726 735 769 774 781 808 819
+ 850
M$1 1 4 2 1 sg13_lv_nmos L=0.13u W=0.74u AS=0.2516p AD=0.2516p PS=2.16u PD=2.16u
M$2 1 3 1 1 sg13_lv_nmos L=1u W=217.14u AS=58.8966p AD=58.8966p PS=615.2u
+ PD=615.2u
M$50 5 26 6 1 sg13_lv_nmos L=0.13u W=0.42u AS=0.1296p AD=0.0798p PS=1.52u
+ PD=0.8u
M$51 6 25 42 1 sg13_lv_nmos L=0.13u W=0.42u AS=0.0798p AD=0.2373p PS=0.8u
+ PD=1.97u
M$52 25 26 1 1 sg13_lv_nmos L=0.13u W=0.74u AS=0.2516p AD=0.317325p PS=2.16u
+ PD=1.805u
M$53 1 210 26 1 sg13_lv_nmos L=0.13u W=0.74u AS=0.317325p AD=0.2516p PS=1.805u
+ PD=2.16u
M$54 43 26 27 1 sg13_lv_nmos L=0.13u W=0.42u AS=0.1428p AD=0.12665p PS=1.52u
+ PD=1.145u
M$55 27 25 24 1 sg13_lv_nmos L=0.13u W=0.74u AS=0.12665p AD=0.3473p PS=1.145u
+ PD=2.71u
M$56 7 27 1 1 sg13_lv_nmos L=0.13u W=0.74u AS=0.2516p AD=0.1406p PS=2.16u
+ PD=1.12u
M$57 1 7 8 1 sg13_lv_nmos L=0.13u W=0.74u AS=0.1406p AD=0.2516p PS=1.12u
+ PD=2.16u
M$60 9 10 44 1 sg13_lv_nmos L=0.13u W=0.74u AS=0.2516p AD=0.1406p PS=2.16u
+ PD=1.12u
M$61 44 11 1 1 sg13_lv_nmos L=0.13u W=0.74u AS=0.1406p AD=0.1898p PS=1.12u
+ PD=1.36u
M$62 1 65 44 1 sg13_lv_nmos L=0.13u W=0.74u AS=0.1898p AD=0.2516p PS=1.36u
+ PD=2.16u
M$63 10 11 48 1 sg13_lv_nmos L=0.13u W=0.64u AS=0.2176p AD=0.0784p PS=1.96u
+ PD=0.885u
M$64 48 65 1 1 sg13_lv_nmos L=0.13u W=0.64u AS=0.0784p AD=0.2272p PS=0.885u
+ PD=1.99u
M$65 1 29 13 1 sg13_lv_nmos L=0.13u W=0.55u AS=0.15245p AD=0.174625p PS=1.17u
+ PD=1.185u
M$66 13 30 1 1 sg13_lv_nmos L=0.13u W=0.55u AS=0.174625p AD=0.374p PS=1.185u
+ PD=2.46u
M$67 1 13 11 1 sg13_lv_nmos L=0.13u W=0.74u AS=0.3108p AD=0.1628p PS=2.32u
+ PD=1.18u
M$68 11 29 49 1 sg13_lv_nmos L=0.13u W=0.74u AS=0.1628p AD=0.0888p PS=1.18u
+ PD=0.98u
M$69 49 30 1 1 sg13_lv_nmos L=0.13u W=0.74u AS=0.0888p AD=0.15245p PS=0.98u
+ PD=1.17u
M$70 1 30 14 1 sg13_lv_nmos L=0.13u W=0.74u AS=0.2516p AD=0.1406p PS=2.16u
+ PD=1.12u
M$71 14 29 1 1 sg13_lv_nmos L=0.13u W=0.74u AS=0.1406p AD=0.2516p PS=1.12u
+ PD=2.16u
M$72 1 165 50 1 sg13_lv_nmos L=0.13u W=0.74u AS=0.2516p AD=0.09435p PS=2.16u
+ PD=0.995u
M$73 50 2 16 1 sg13_lv_nmos L=0.13u W=0.74u AS=0.09435p AD=0.1406p PS=0.995u
+ PD=1.12u
M$74 16 31 1 1 sg13_lv_nmos L=0.13u W=0.74u AS=0.1406p AD=0.3811p PS=1.12u
+ PD=2.51u
M$75 1 16 17 1 sg13_lv_nmos L=0.13u W=1.48u AS=0.3922p AD=0.3922p PS=3.28u
+ PD=3.28u
M$77 1 14 31 1 sg13_lv_nmos L=0.13u W=0.74u AS=0.2516p AD=0.1406p PS=2.16u
+ PD=1.12u
M$78 31 166 1 1 sg13_lv_nmos L=0.13u W=0.74u AS=0.1406p AD=0.2516p PS=1.12u
+ PD=2.16u
M$81 1 8 18 1 sg13_lv_nmos L=0.13u W=0.55u AS=0.374p AD=0.174625p PS=2.46u
+ PD=1.185u
M$82 18 30 1 1 sg13_lv_nmos L=0.13u W=0.55u AS=0.174625p AD=0.15245p PS=1.185u
+ PD=1.17u
M$83 1 8 51 1 sg13_lv_nmos L=0.13u W=0.74u AS=0.15245p AD=0.0888p PS=1.17u
+ PD=0.98u
M$84 51 30 20 1 sg13_lv_nmos L=0.13u W=0.74u AS=0.0888p AD=0.1628p PS=0.98u
+ PD=1.18u
M$85 20 18 1 1 sg13_lv_nmos L=0.13u W=0.74u AS=0.1628p AD=0.3108p PS=1.18u
+ PD=2.32u
M$86 1 20 52 1 sg13_lv_nmos L=0.13u W=0.74u AS=0.2516p AD=0.1406p PS=2.16u
+ PD=1.12u
M$87 52 32 22 1 sg13_lv_nmos L=0.13u W=0.74u AS=0.1406p AD=0.1406p PS=1.12u
+ PD=1.12u
M$88 22 33 1 1 sg13_lv_nmos L=0.13u W=0.74u AS=0.1406p AD=0.2516p PS=1.12u
+ PD=2.16u
M$105 1 74 23 1 sg13_lv_nmos L=0.13u W=0.74u AS=0.2516p AD=0.2516p PS=2.16u
+ PD=2.16u
M$106 1 74 106 1 sg13_lv_nmos L=0.13u W=0.74u AS=0.2516p AD=0.2516p PS=2.16u
+ PD=2.16u
M$108 1 107 75 1 sg13_lv_nmos L=0.13u W=0.55u AS=0.18945p AD=0.187p PS=1.27u
+ PD=1.78u
M$109 1 107 92 1 sg13_lv_nmos L=0.13u W=0.74u AS=0.18945p AD=0.13135p PS=1.27u
+ PD=1.095u
M$110 92 65 60 1 sg13_lv_nmos L=0.13u W=0.74u AS=0.13135p AD=0.1628p PS=1.095u
+ PD=1.18u
M$111 60 8 93 1 sg13_lv_nmos L=0.13u W=0.74u AS=0.1628p AD=0.3367p PS=1.18u
+ PD=1.65u
M$112 93 75 1 1 sg13_lv_nmos L=0.13u W=0.74u AS=0.3367p AD=0.148p PS=1.65u
+ PD=1.14u
M$113 1 60 41 1 sg13_lv_nmos L=0.13u W=0.74u AS=0.148p AD=0.4033p PS=1.14u
+ PD=2.57u
M$114 1 6 24 1 sg13_lv_nmos L=0.13u W=0.74u AS=0.1626p AD=0.2516p PS=1.415u
+ PD=2.16u
M$115 5 41 45 1 sg13_lv_nmos L=0.13u W=0.42u AS=0.1428p AD=0.0609p PS=1.52u
+ PD=0.71u
M$116 1 23 45 1 sg13_lv_nmos L=0.13u W=0.42u AS=0.1626p AD=0.0609p PS=1.415u
+ PD=0.71u
M$117 1 23 46 1 sg13_lv_nmos L=0.13u W=0.42u AS=0.1701p AD=0.0378p PS=1.65u
+ PD=0.6u
M$118 46 24 42 1 sg13_lv_nmos L=0.13u W=0.42u AS=0.0378p AD=0.1428p PS=0.6u
+ PD=1.52u
M$119 61 108 94 1 sg13_lv_nmos L=0.13u W=0.42u AS=0.1428p AD=0.0609p PS=1.52u
+ PD=0.71u
M$120 94 106 1 1 sg13_lv_nmos L=0.13u W=0.42u AS=0.0609p AD=0.1626p PS=0.71u
+ PD=1.415u
M$121 1 109 53 1 sg13_lv_nmos L=0.13u W=0.74u AS=0.1626p AD=0.2516p PS=1.415u
+ PD=2.16u
M$122 1 106 95 1 sg13_lv_nmos L=0.13u W=0.42u AS=0.1701p AD=0.0378p PS=1.65u
+ PD=0.6u
M$123 95 53 76 1 sg13_lv_nmos L=0.13u W=0.42u AS=0.0378p AD=0.1428p PS=0.6u
+ PD=1.52u
M$124 43 28 1 1 sg13_lv_nmos L=0.13u W=0.42u AS=0.1428p AD=0.0798p PS=1.52u
+ PD=0.8u
M$125 1 23 47 1 sg13_lv_nmos L=0.13u W=0.42u AS=0.0798p AD=0.0378p PS=0.8u
+ PD=0.6u
M$126 47 27 28 1 sg13_lv_nmos L=0.13u W=0.42u AS=0.0378p AD=0.1428p PS=0.6u
+ PD=1.52u
M$127 77 54 62 1 sg13_lv_nmos L=0.13u W=0.42u AS=0.12665p AD=0.1428p PS=1.145u
+ PD=1.52u
M$128 53 116 77 1 sg13_lv_nmos L=0.13u W=0.74u AS=0.3473p AD=0.12665p PS=2.71u
+ PD=1.145u
M$129 62 63 1 1 sg13_lv_nmos L=0.13u W=0.42u AS=0.1428p AD=0.0798p PS=1.52u
+ PD=0.8u
M$130 1 106 97 1 sg13_lv_nmos L=0.13u W=0.42u AS=0.0798p AD=0.0378p PS=0.8u
+ PD=0.6u
M$131 97 77 63 1 sg13_lv_nmos L=0.13u W=0.42u AS=0.0378p AD=0.1428p PS=0.6u
+ PD=1.52u
M$132 64 77 1 1 sg13_lv_nmos L=0.13u W=0.74u AS=0.2516p AD=0.1406p PS=2.16u
+ PD=1.12u
M$133 1 64 65 1 sg13_lv_nmos L=0.13u W=0.74u AS=0.1406p AD=0.2516p PS=1.12u
+ PD=2.16u
M$135 1 74 78 1 sg13_lv_nmos L=0.13u W=0.74u AS=0.2516p AD=0.2516p PS=2.16u
+ PD=2.16u
M$136 66 9 99 1 sg13_lv_nmos L=0.13u W=0.42u AS=0.1428p AD=0.0609p PS=1.52u
+ PD=0.71u
M$137 99 78 1 1 sg13_lv_nmos L=0.13u W=0.42u AS=0.0609p AD=0.1626p PS=0.71u
+ PD=1.415u
M$138 1 110 55 1 sg13_lv_nmos L=0.13u W=0.74u AS=0.1626p AD=0.2516p PS=1.415u
+ PD=2.16u
M$139 1 78 100 1 sg13_lv_nmos L=0.13u W=0.42u AS=0.1701p AD=0.0378p PS=1.65u
+ PD=0.6u
M$140 100 55 79 1 sg13_lv_nmos L=0.13u W=0.42u AS=0.0378p AD=0.1428p PS=0.6u
+ PD=1.52u
M$142 80 56 67 1 sg13_lv_nmos L=0.13u W=0.42u AS=0.12665p AD=0.1428p PS=1.145u
+ PD=1.52u
M$143 55 117 80 1 sg13_lv_nmos L=0.13u W=0.74u AS=0.3473p AD=0.12665p PS=2.71u
+ PD=1.145u
M$144 67 68 1 1 sg13_lv_nmos L=0.13u W=0.42u AS=0.1428p AD=0.0798p PS=1.52u
+ PD=0.8u
M$145 1 78 102 1 sg13_lv_nmos L=0.13u W=0.42u AS=0.0798p AD=0.0378p PS=0.8u
+ PD=0.6u
M$146 102 80 68 1 sg13_lv_nmos L=0.13u W=0.42u AS=0.0378p AD=0.1428p PS=0.6u
+ PD=1.52u
M$147 69 80 1 1 sg13_lv_nmos L=0.13u W=0.74u AS=0.2516p AD=0.1406p PS=2.16u
+ PD=1.12u
M$148 1 69 29 1 sg13_lv_nmos L=0.13u W=0.74u AS=0.1406p AD=0.2516p PS=1.12u
+ PD=2.16u
M$149 81 111 1 1 sg13_lv_nmos L=0.13u W=0.74u AS=0.2516p AD=0.2516p PS=2.16u
+ PD=2.16u
M$150 70 112 104 1 sg13_lv_nmos L=0.13u W=0.42u AS=0.1428p AD=0.0609p PS=1.52u
+ PD=0.71u
M$151 104 81 1 1 sg13_lv_nmos L=0.13u W=0.42u AS=0.0609p AD=0.1626p PS=0.71u
+ PD=1.415u
M$152 1 113 57 1 sg13_lv_nmos L=0.13u W=0.74u AS=0.1626p AD=0.2516p PS=1.415u
+ PD=2.16u
M$153 1 81 105 1 sg13_lv_nmos L=0.13u W=0.42u AS=0.1701p AD=0.0378p PS=1.65u
+ PD=0.6u
M$154 105 57 82 1 sg13_lv_nmos L=0.13u W=0.42u AS=0.0378p AD=0.1428p PS=0.6u
+ PD=1.52u
M$156 83 58 71 1 sg13_lv_nmos L=0.13u W=0.42u AS=0.12665p AD=0.1428p PS=1.145u
+ PD=1.52u
M$157 57 118 83 1 sg13_lv_nmos L=0.13u W=0.74u AS=0.3473p AD=0.12665p PS=2.71u
+ PD=1.145u
M$158 71 72 1 1 sg13_lv_nmos L=0.13u W=0.42u AS=0.1428p AD=0.0798p PS=1.52u
+ PD=0.8u
M$159 1 81 103 1 sg13_lv_nmos L=0.13u W=0.42u AS=0.0798p AD=0.0378p PS=0.8u
+ PD=0.6u
M$160 103 83 72 1 sg13_lv_nmos L=0.13u W=0.42u AS=0.0378p AD=0.1428p PS=0.6u
+ PD=1.52u
M$161 73 83 1 1 sg13_lv_nmos L=0.13u W=0.74u AS=0.2516p AD=0.1406p PS=2.16u
+ PD=1.12u
M$162 1 73 32 1 sg13_lv_nmos L=0.13u W=0.74u AS=0.1406p AD=0.2516p PS=1.12u
+ PD=2.16u
M$163 1 22 87 1 sg13_lv_nmos L=0.13u W=0.74u AS=0.2516p AD=0.1406p PS=2.16u
+ PD=1.12u
M$164 87 167 1 1 sg13_lv_nmos L=0.13u W=0.74u AS=0.1406p AD=0.2516p PS=1.12u
+ PD=2.16u
M$165 1 111 90 1 sg13_lv_nmos L=0.13u W=0.74u AS=0.2516p AD=0.2516p PS=2.16u
+ PD=2.16u
M$166 1 115 91 1 sg13_lv_nmos L=0.13u W=0.55u AS=0.14875p AD=0.187p PS=1.16u
+ PD=1.78u
M$167 1 91 59 1 sg13_lv_nmos L=0.13u W=0.74u AS=0.14875p AD=0.2886p PS=1.16u
+ PD=2.26u
M$168 61 54 109 1 sg13_lv_nmos L=0.13u W=0.42u AS=0.1296p AD=0.0798p PS=1.52u
+ PD=0.8u
M$169 109 116 76 1 sg13_lv_nmos L=0.13u W=0.42u AS=0.0798p AD=0.2373p PS=0.8u
+ PD=1.97u
M$170 135 164 137 1 sg13_lv_nmos L=0.13u W=0.42u AS=0.1296p AD=0.0798p PS=1.52u
+ PD=0.8u
M$171 137 138 163 1 sg13_lv_nmos L=0.13u W=0.42u AS=0.0798p AD=0.2373p PS=0.8u
+ PD=1.97u
M$172 1 54 116 1 sg13_lv_nmos L=0.13u W=0.74u AS=0.317325p AD=0.2516p PS=1.805u
+ PD=2.16u
M$173 1 210 54 1 sg13_lv_nmos L=0.13u W=0.74u AS=0.317325p AD=0.2516p PS=1.805u
+ PD=2.16u
M$174 66 56 110 1 sg13_lv_nmos L=0.13u W=0.42u AS=0.1296p AD=0.0798p PS=1.52u
+ PD=0.8u
M$175 110 117 79 1 sg13_lv_nmos L=0.13u W=0.42u AS=0.0798p AD=0.2373p PS=0.8u
+ PD=1.97u
M$176 1 56 117 1 sg13_lv_nmos L=0.13u W=0.74u AS=0.317325p AD=0.2516p PS=1.805u
+ PD=2.16u
M$177 1 115 56 1 sg13_lv_nmos L=0.13u W=0.74u AS=0.317325p AD=0.2516p PS=1.805u
+ PD=2.16u
M$178 1 4 197 1 sg13_lv_nmos L=0.13u W=0.64u AS=0.2272p AD=0.0784p PS=1.99u
+ PD=0.885u
M$179 197 165 143 1 sg13_lv_nmos L=0.13u W=0.64u AS=0.0784p AD=0.2176p
+ PS=0.885u PD=1.96u
M$180 70 58 113 1 sg13_lv_nmos L=0.13u W=0.42u AS=0.1296p AD=0.0798p PS=1.52u
+ PD=0.8u
M$181 113 118 82 1 sg13_lv_nmos L=0.13u W=0.42u AS=0.0798p AD=0.2373p PS=0.8u
+ PD=1.97u
M$182 1 58 118 1 sg13_lv_nmos L=0.13u W=0.74u AS=0.317325p AD=0.2516p PS=1.805u
+ PD=2.16u
M$183 1 115 58 1 sg13_lv_nmos L=0.13u W=0.74u AS=0.317325p AD=0.2516p PS=1.805u
+ PD=2.16u
M$184 146 20 198 1 sg13_lv_nmos L=0.13u W=0.64u AS=0.2176p AD=0.0784p PS=1.96u
+ PD=0.885u
M$185 198 32 1 1 sg13_lv_nmos L=0.13u W=0.64u AS=0.0784p AD=0.2272p PS=0.885u
+ PD=1.99u
M$186 84 8 101 1 sg13_lv_nmos L=0.13u W=0.64u AS=0.2176p AD=0.1216p PS=1.96u
+ PD=1.02u
M$187 1 30 101 1 sg13_lv_nmos L=0.13u W=0.64u AS=0.1331p AD=0.1216p PS=1.12u
+ PD=1.02u
M$188 1 84 33 1 sg13_lv_nmos L=0.13u W=0.74u AS=0.1331p AD=0.2516p PS=1.12u
+ PD=2.16u
M$189 147 114 196 1 sg13_lv_nmos L=0.13u W=0.64u AS=0.2176p AD=0.1216p PS=1.96u
+ PD=1.02u
M$190 196 530 1 1 sg13_lv_nmos L=0.13u W=0.64u AS=0.1216p AD=0.1331p PS=1.02u
+ PD=1.12u
M$191 1 147 148 1 sg13_lv_nmos L=0.13u W=0.74u AS=0.1331p AD=0.2516p PS=1.12u
+ PD=2.16u
M$192 1 114 85 1 sg13_lv_nmos L=0.13u W=0.55u AS=0.374p AD=0.174625p PS=2.46u
+ PD=1.185u
M$193 1 530 85 1 sg13_lv_nmos L=0.13u W=0.55u AS=0.15245p AD=0.174625p PS=1.17u
+ PD=1.185u
M$194 1 114 98 1 sg13_lv_nmos L=0.13u W=0.74u AS=0.15245p AD=0.0888p PS=1.17u
+ PD=0.98u
M$195 98 530 86 1 sg13_lv_nmos L=0.13u W=0.74u AS=0.0888p AD=0.1628p PS=0.98u
+ PD=1.18u
M$196 86 85 1 1 sg13_lv_nmos L=0.13u W=0.74u AS=0.1628p AD=0.3108p PS=1.18u
+ PD=2.32u
M$197 1 17 88 1 sg13_lv_nmos L=0.13u W=0.55u AS=0.374p AD=0.174625p PS=2.46u
+ PD=1.185u
M$198 1 151 88 1 sg13_lv_nmos L=0.13u W=0.55u AS=0.15245p AD=0.174625p PS=1.17u
+ PD=1.185u
M$199 1 17 96 1 sg13_lv_nmos L=0.13u W=0.74u AS=0.15245p AD=0.0888p PS=1.17u
+ PD=0.98u
M$200 96 151 89 1 sg13_lv_nmos L=0.13u W=0.74u AS=0.0888p AD=0.1628p PS=0.98u
+ PD=1.18u
M$201 89 88 1 1 sg13_lv_nmos L=0.13u W=0.74u AS=0.1628p AD=0.3108p PS=1.18u
+ PD=2.32u
M$202 152 86 192 1 sg13_lv_nmos L=0.13u W=0.64u AS=0.2176p AD=0.0784p PS=1.96u
+ PD=0.885u
M$203 192 168 1 1 sg13_lv_nmos L=0.13u W=0.64u AS=0.0784p AD=0.2272p PS=0.885u
+ PD=1.99u
M$207 153 170 155 1 sg13_lv_nmos L=0.13u W=0.42u AS=0.1296p AD=0.0798p PS=1.52u
+ PD=0.8u
M$208 155 156 169 1 sg13_lv_nmos L=0.13u W=0.42u AS=0.0798p AD=0.2373p PS=0.8u
+ PD=1.97u
M$212 138 164 1 1 sg13_lv_nmos L=0.13u W=0.74u AS=0.2516p AD=0.317325p PS=2.16u
+ PD=1.805u
M$213 1 210 164 1 sg13_lv_nmos L=0.13u W=0.74u AS=0.317325p AD=0.2516p
+ PS=1.805u PD=2.16u
M$214 180 164 139 1 sg13_lv_nmos L=0.13u W=0.42u AS=0.1428p AD=0.12665p
+ PS=1.52u PD=1.145u
M$215 139 138 136 1 sg13_lv_nmos L=0.13u W=0.74u AS=0.12665p AD=0.3473p
+ PS=1.145u PD=2.71u
M$216 1 166 145 1 sg13_lv_nmos L=0.13u W=0.55u AS=0.15245p AD=0.174625p
+ PS=1.17u PD=1.185u
M$217 145 14 1 1 sg13_lv_nmos L=0.13u W=0.55u AS=0.174625p AD=0.374p PS=1.185u
+ PD=2.46u
M$218 1 145 165 1 sg13_lv_nmos L=0.13u W=0.74u AS=0.3108p AD=0.1628p PS=2.32u
+ PD=1.18u
M$219 165 166 199 1 sg13_lv_nmos L=0.13u W=0.74u AS=0.1628p AD=0.0888p PS=1.18u
+ PD=0.98u
M$220 199 14 1 1 sg13_lv_nmos L=0.13u W=0.74u AS=0.0888p AD=0.15245p PS=0.98u
+ PD=1.17u
M$221 1 22 149 1 sg13_lv_nmos L=0.13u W=0.55u AS=0.374p AD=0.174625p PS=2.46u
+ PD=1.185u
M$222 149 167 1 1 sg13_lv_nmos L=0.13u W=0.55u AS=0.174625p AD=0.15245p
+ PS=1.185u PD=1.17u
M$223 1 22 194 1 sg13_lv_nmos L=0.13u W=0.74u AS=0.15245p AD=0.0888p PS=1.17u
+ PD=0.98u
M$224 194 167 151 1 sg13_lv_nmos L=0.13u W=0.74u AS=0.0888p AD=0.1628p PS=0.98u
+ PD=1.18u
M$225 151 149 1 1 sg13_lv_nmos L=0.13u W=0.74u AS=0.1628p AD=0.3108p PS=1.18u
+ PD=2.32u
M$226 156 170 1 1 sg13_lv_nmos L=0.13u W=0.74u AS=0.2516p AD=0.317325p PS=2.16u
+ PD=1.805u
M$227 1 115 170 1 sg13_lv_nmos L=0.13u W=0.74u AS=0.317325p AD=0.2516p
+ PS=1.805u PD=2.16u
M$228 184 170 157 1 sg13_lv_nmos L=0.13u W=0.42u AS=0.1428p AD=0.12665p
+ PS=1.52u PD=1.145u
M$229 157 156 154 1 sg13_lv_nmos L=0.13u W=0.74u AS=0.12665p AD=0.3473p
+ PS=1.145u PD=2.71u
M$232 133 107 1 1 sg13_lv_nmos L=0.13u W=0.55u AS=0.187p AD=0.18945p PS=1.78u
+ PD=1.27u
M$233 1 107 186 1 sg13_lv_nmos L=0.13u W=0.74u AS=0.18945p AD=0.13135p PS=1.27u
+ PD=1.095u
M$234 186 162 134 1 sg13_lv_nmos L=0.13u W=0.74u AS=0.13135p AD=0.1628p
+ PS=1.095u PD=1.18u
M$235 134 65 187 1 sg13_lv_nmos L=0.13u W=0.74u AS=0.1628p AD=0.3367p PS=1.18u
+ PD=1.65u
M$236 187 133 1 1 sg13_lv_nmos L=0.13u W=0.74u AS=0.3367p AD=0.148p PS=1.65u
+ PD=1.14u
M$237 1 134 108 1 sg13_lv_nmos L=0.13u W=0.74u AS=0.148p AD=0.4033p PS=1.14u
+ PD=2.57u
M$238 141 139 1 1 sg13_lv_nmos L=0.13u W=0.74u AS=0.2516p AD=0.1406p PS=2.16u
+ PD=1.12u
M$239 1 141 114 1 sg13_lv_nmos L=0.13u W=0.74u AS=0.1406p AD=0.2516p PS=1.12u
+ PD=2.16u
M$243 142 11 1 1 sg13_lv_nmos L=0.13u W=0.55u AS=0.187p AD=0.14505p PS=1.78u
+ PD=1.15u
M$244 1 65 195 1 sg13_lv_nmos L=0.13u W=0.74u AS=0.14505p AD=0.1406p PS=1.15u
+ PD=1.12u
M$245 195 142 4 1 sg13_lv_nmos L=0.13u W=0.74u AS=0.1406p AD=0.333p PS=1.12u
+ PD=2.38u
M$247 181 4 1 1 sg13_lv_nmos L=0.13u W=0.74u AS=0.2516p AD=0.1898p PS=2.16u
+ PD=1.36u
M$248 1 165 181 1 sg13_lv_nmos L=0.13u W=0.74u AS=0.1898p AD=0.1406p PS=1.36u
+ PD=1.12u
M$249 181 143 112 1 sg13_lv_nmos L=0.13u W=0.74u AS=0.1406p AD=0.2516p PS=1.12u
+ PD=2.16u
M$254 166 146 182 1 sg13_lv_nmos L=0.13u W=0.74u AS=0.2516p AD=0.1406p PS=2.16u
+ PD=1.12u
M$255 182 20 1 1 sg13_lv_nmos L=0.13u W=0.74u AS=0.1406p AD=0.1898p PS=1.12u
+ PD=1.36u
M$256 1 32 182 1 sg13_lv_nmos L=0.13u W=0.74u AS=0.1898p AD=0.2516p PS=1.36u
+ PD=2.16u
M$259 167 152 183 1 sg13_lv_nmos L=0.13u W=0.74u AS=0.2516p AD=0.1406p PS=2.16u
+ PD=1.12u
M$260 183 86 1 1 sg13_lv_nmos L=0.13u W=0.74u AS=0.1406p AD=0.1898p PS=1.12u
+ PD=1.36u
M$261 1 168 183 1 sg13_lv_nmos L=0.13u W=0.74u AS=0.1898p AD=0.2516p PS=1.36u
+ PD=2.16u
M$262 159 157 1 1 sg13_lv_nmos L=0.13u W=0.74u AS=0.2516p AD=0.1406p PS=2.16u
+ PD=1.12u
M$263 1 159 168 1 sg13_lv_nmos L=0.13u W=0.74u AS=0.1406p AD=0.2516p PS=1.12u
+ PD=2.16u
M$266 1 107 200 1 sg13_lv_nmos L=0.13u W=0.55u AS=0.18945p AD=0.187p PS=1.27u
+ PD=1.78u
M$267 1 107 204 1 sg13_lv_nmos L=0.13u W=0.74u AS=0.18945p AD=0.13135p PS=1.27u
+ PD=1.095u
M$268 204 8 201 1 sg13_lv_nmos L=0.13u W=0.74u AS=0.13135p AD=0.1628p PS=1.095u
+ PD=1.18u
M$269 201 114 205 1 sg13_lv_nmos L=0.13u W=0.74u AS=0.1628p AD=0.3367p PS=1.18u
+ PD=1.65u
M$270 205 200 1 1 sg13_lv_nmos L=0.13u W=0.74u AS=0.3367p AD=0.148p PS=1.65u
+ PD=1.14u
M$271 1 201 202 1 sg13_lv_nmos L=0.13u W=0.74u AS=0.148p AD=0.4033p PS=1.14u
+ PD=2.57u
M$272 1 137 136 1 sg13_lv_nmos L=0.13u W=0.74u AS=0.1626p AD=0.2516p PS=1.415u
+ PD=2.16u
M$273 135 202 188 1 sg13_lv_nmos L=0.13u W=0.42u AS=0.1428p AD=0.0609p PS=1.52u
+ PD=0.71u
M$274 1 132 188 1 sg13_lv_nmos L=0.13u W=0.42u AS=0.1626p AD=0.0609p PS=1.415u
+ PD=0.71u
M$275 1 74 132 1 sg13_lv_nmos L=0.13u W=0.74u AS=0.2516p AD=0.2516p PS=2.16u
+ PD=2.16u
M$278 1 132 189 1 sg13_lv_nmos L=0.13u W=0.42u AS=0.1701p AD=0.0378p PS=1.65u
+ PD=0.6u
M$279 189 136 163 1 sg13_lv_nmos L=0.13u W=0.42u AS=0.0378p AD=0.1428p PS=0.6u
+ PD=1.52u
M$284 180 140 1 1 sg13_lv_nmos L=0.13u W=0.42u AS=0.1428p AD=0.0798p PS=1.52u
+ PD=0.8u
M$285 1 132 193 1 sg13_lv_nmos L=0.13u W=0.42u AS=0.0798p AD=0.0378p PS=0.8u
+ PD=0.6u
M$286 193 139 140 1 sg13_lv_nmos L=0.13u W=0.42u AS=0.0378p AD=0.1428p PS=0.6u
+ PD=1.52u
M$309 1 148 203 1 sg13_lv_nmos L=0.13u W=0.74u AS=0.2516p AD=0.1406p PS=2.16u
+ PD=1.12u
M$310 203 168 206 1 sg13_lv_nmos L=0.13u W=0.74u AS=0.1406p AD=0.1406p PS=1.12u
+ PD=1.12u
M$311 206 86 1 1 sg13_lv_nmos L=0.13u W=0.74u AS=0.1406p AD=0.2516p PS=1.12u
+ PD=2.16u
M$316 1 155 154 1 sg13_lv_nmos L=0.13u W=0.74u AS=0.1626p AD=0.2516p PS=1.415u
+ PD=2.16u
M$317 153 89 191 1 sg13_lv_nmos L=0.13u W=0.42u AS=0.1428p AD=0.0609p PS=1.52u
+ PD=0.71u
M$318 1 90 191 1 sg13_lv_nmos L=0.13u W=0.42u AS=0.1626p AD=0.0609p PS=1.415u
+ PD=0.71u
M$321 1 90 190 1 sg13_lv_nmos L=0.13u W=0.42u AS=0.1701p AD=0.0378p PS=1.65u
+ PD=0.6u
M$322 190 154 169 1 sg13_lv_nmos L=0.13u W=0.42u AS=0.0378p AD=0.1428p PS=0.6u
+ PD=1.52u
M$327 184 158 1 1 sg13_lv_nmos L=0.13u W=0.42u AS=0.1428p AD=0.0798p PS=1.52u
+ PD=0.8u
M$328 1 90 185 1 sg13_lv_nmos L=0.13u W=0.42u AS=0.0798p AD=0.0378p PS=0.8u
+ PD=0.6u
M$329 185 157 158 1 sg13_lv_nmos L=0.13u W=0.42u AS=0.0378p AD=0.1428p PS=0.6u
+ PD=1.52u
M$339 1 211 210 1 sg13_lv_nmos L=0.13u W=11.84u AS=2.3606p AD=2.2496p PS=18.96u
+ PD=17.92u
M$355 1 415 211 1 sg13_lv_nmos L=0.13u W=4.44u AS=0.8436p AD=0.9546p PS=6.72u
+ PD=7.76u
M$379 1 217 212 1 sg13_lv_nmos L=0.13u W=0.74u AS=0.2516p AD=0.1406p PS=2.16u
+ PD=1.12u
M$380 212 203 1 1 sg13_lv_nmos L=0.13u W=0.74u AS=0.1406p AD=0.2516p PS=1.12u
+ PD=2.16u
M$381 1 215 219 1 sg13_lv_nmos L=0.13u W=0.64u AS=0.1331p AD=0.1216p PS=1.12u
+ PD=1.02u
M$382 219 151 214 1 sg13_lv_nmos L=0.13u W=0.64u AS=0.1216p AD=0.2176p PS=1.02u
+ PD=1.96u
M$383 213 214 1 1 sg13_lv_nmos L=0.13u W=0.74u AS=0.2516p AD=0.1331p PS=2.16u
+ PD=1.12u
M$394 1 218 225 1 sg13_lv_nmos L=0.13u W=0.55u AS=0.14875p AD=0.187p PS=1.16u
+ PD=1.78u
M$395 1 225 162 1 sg13_lv_nmos L=0.13u W=0.74u AS=0.14875p AD=0.2886p PS=1.16u
+ PD=2.26u
M$397 220 221 1 1 sg13_lv_nmos L=0.13u W=0.74u AS=0.4033p AD=0.148p PS=2.57u
+ PD=1.14u
M$398 1 226 237 1 sg13_lv_nmos L=0.13u W=0.74u AS=0.148p AD=0.3367p PS=1.14u
+ PD=1.65u
M$399 237 227 221 1 sg13_lv_nmos L=0.13u W=0.74u AS=0.3367p AD=0.1628p PS=1.65u
+ PD=1.18u
M$400 221 114 238 1 sg13_lv_nmos L=0.13u W=0.74u AS=0.1628p AD=0.13135p
+ PS=1.18u PD=1.095u
M$401 238 107 1 1 sg13_lv_nmos L=0.13u W=0.74u AS=0.13135p AD=0.18945p
+ PS=1.095u PD=1.27u
M$402 1 107 226 1 sg13_lv_nmos L=0.13u W=0.55u AS=0.18945p AD=0.187p PS=1.27u
+ PD=1.78u
M$417 1 227 228 1 sg13_lv_nmos L=0.13u W=0.55u AS=0.374p AD=0.174625p PS=2.46u
+ PD=1.185u
M$418 1 30 228 1 sg13_lv_nmos L=0.13u W=0.55u AS=0.15245p AD=0.174625p PS=1.17u
+ PD=1.185u
M$419 1 227 239 1 sg13_lv_nmos L=0.13u W=0.74u AS=0.15245p AD=0.0888p PS=1.17u
+ PD=0.98u
M$420 239 30 222 1 sg13_lv_nmos L=0.13u W=0.74u AS=0.0888p AD=0.1628p PS=0.98u
+ PD=1.18u
M$421 222 228 1 1 sg13_lv_nmos L=0.13u W=0.74u AS=0.1628p AD=0.3108p PS=1.18u
+ PD=2.32u
M$424 1 222 240 1 sg13_lv_nmos L=0.13u W=0.74u AS=0.2516p AD=0.1406p PS=2.16u
+ PD=1.12u
M$425 240 229 289 1 sg13_lv_nmos L=0.13u W=0.74u AS=0.1406p AD=0.2516p PS=1.12u
+ PD=2.16u
M$428 1 229 242 1 sg13_lv_nmos L=0.13u W=0.64u AS=0.2272p AD=0.0784p PS=1.99u
+ PD=0.885u
M$429 242 222 230 1 sg13_lv_nmos L=0.13u W=0.64u AS=0.0784p AD=0.2176p
+ PS=0.885u PD=1.96u
M$430 1 229 231 1 sg13_lv_nmos L=0.13u W=0.74u AS=0.1898p AD=0.2516p PS=1.36u
+ PD=2.16u
M$431 1 222 231 1 sg13_lv_nmos L=0.13u W=0.74u AS=0.1898p AD=0.1406p PS=1.36u
+ PD=1.12u
M$432 231 230 217 1 sg13_lv_nmos L=0.13u W=0.74u AS=0.1406p AD=0.2516p PS=1.12u
+ PD=2.16u
M$435 1 224 223 1 sg13_lv_nmos L=0.13u W=1.48u AS=0.3922p AD=0.3922p PS=3.28u
+ PD=3.28u
M$437 1 212 224 1 sg13_lv_nmos L=0.13u W=0.74u AS=0.3811p AD=0.1406p PS=2.51u
+ PD=1.12u
M$438 224 87 244 1 sg13_lv_nmos L=0.13u W=0.74u AS=0.1406p AD=0.09435p PS=1.12u
+ PD=0.995u
M$439 244 232 1 1 sg13_lv_nmos L=0.13u W=0.74u AS=0.09435p AD=0.2516p PS=0.995u
+ PD=2.16u
M$440 1 203 233 1 sg13_lv_nmos L=0.13u W=0.55u AS=0.374p AD=0.174625p PS=2.46u
+ PD=1.185u
M$441 1 217 233 1 sg13_lv_nmos L=0.13u W=0.55u AS=0.15245p AD=0.174625p
+ PS=1.17u PD=1.185u
M$442 1 203 243 1 sg13_lv_nmos L=0.13u W=0.74u AS=0.15245p AD=0.0888p PS=1.17u
+ PD=0.98u
M$443 243 217 215 1 sg13_lv_nmos L=0.13u W=0.74u AS=0.0888p AD=0.1628p PS=0.98u
+ PD=1.18u
M$444 215 233 1 1 sg13_lv_nmos L=0.13u W=0.74u AS=0.1628p AD=0.3108p PS=1.18u
+ PD=2.32u
M$445 1 215 241 1 sg13_lv_nmos L=0.13u W=0.64u AS=0.2272p AD=0.0784p PS=1.99u
+ PD=0.885u
M$446 241 277 234 1 sg13_lv_nmos L=0.13u W=0.64u AS=0.0784p AD=0.2176p
+ PS=0.885u PD=1.96u
M$447 1 215 235 1 sg13_lv_nmos L=0.13u W=0.74u AS=0.1898p AD=0.2516p PS=1.36u
+ PD=2.16u
M$448 1 277 235 1 sg13_lv_nmos L=0.13u W=0.74u AS=0.1898p AD=0.1406p PS=1.36u
+ PD=1.12u
M$449 235 234 246 1 sg13_lv_nmos L=0.13u W=0.74u AS=0.1406p AD=0.2516p PS=1.12u
+ PD=2.16u
M$454 115 236 1 1 sg13_lv_nmos L=0.13u W=0.74u AS=0.2886p AD=0.14875p PS=2.26u
+ PD=1.16u
M$455 1 247 236 1 sg13_lv_nmos L=0.13u W=0.55u AS=0.14875p AD=0.187p PS=1.16u
+ PD=1.78u
M$460 1 74 257 1 sg13_lv_nmos L=0.13u W=0.74u AS=0.2516p AD=0.2516p PS=2.16u
+ PD=2.16u
M$461 256 283 262 1 sg13_lv_nmos L=0.13u W=0.42u AS=0.1296p AD=0.0798p PS=1.52u
+ PD=0.8u
M$462 262 263 300 1 sg13_lv_nmos L=0.13u W=0.42u AS=0.0798p AD=0.2373p PS=0.8u
+ PD=1.97u
M$463 263 283 1 1 sg13_lv_nmos L=0.13u W=0.74u AS=0.2516p AD=0.317325p PS=2.16u
+ PD=1.805u
M$464 1 210 283 1 sg13_lv_nmos L=0.13u W=0.74u AS=0.317325p AD=0.2516p
+ PS=1.805u PD=2.16u
M$465 301 283 284 1 sg13_lv_nmos L=0.13u W=0.42u AS=0.1428p AD=0.12665p
+ PS=1.52u PD=1.145u
M$466 284 263 261 1 sg13_lv_nmos L=0.13u W=0.74u AS=0.12665p AD=0.3473p
+ PS=1.145u PD=2.71u
M$467 264 284 1 1 sg13_lv_nmos L=0.13u W=0.74u AS=0.2516p AD=0.1406p PS=2.16u
+ PD=1.12u
M$468 1 264 227 1 sg13_lv_nmos L=0.13u W=0.74u AS=0.1406p AD=0.2516p PS=1.12u
+ PD=2.16u
M$470 265 286 313 1 sg13_lv_nmos L=0.13u W=0.74u AS=0.2516p AD=0.1406p PS=2.16u
+ PD=1.12u
M$471 313 30 1 1 sg13_lv_nmos L=0.13u W=0.74u AS=0.1406p AD=0.2516p PS=1.12u
+ PD=2.16u
M$474 1 288 316 1 sg13_lv_nmos L=0.13u W=0.64u AS=0.2272p AD=0.0784p PS=1.99u
+ PD=0.885u
M$475 316 287 266 1 sg13_lv_nmos L=0.13u W=0.64u AS=0.0784p AD=0.2176p
+ PS=0.885u PD=1.96u
M$476 302 288 1 1 sg13_lv_nmos L=0.13u W=0.74u AS=0.2516p AD=0.1898p PS=2.16u
+ PD=1.36u
M$477 1 287 302 1 sg13_lv_nmos L=0.13u W=0.74u AS=0.1898p AD=0.1406p PS=1.36u
+ PD=1.12u
M$478 302 266 267 1 sg13_lv_nmos L=0.13u W=0.74u AS=0.1406p AD=0.2516p PS=1.12u
+ PD=2.16u
M$479 1 30 317 1 sg13_lv_nmos L=0.13u W=0.74u AS=0.2516p AD=0.1406p PS=2.16u
+ PD=1.12u
M$480 317 227 268 1 sg13_lv_nmos L=0.13u W=0.74u AS=0.1406p AD=0.2516p PS=1.12u
+ PD=2.16u
M$481 1 267 318 1 sg13_lv_nmos L=0.13u W=0.74u AS=0.2886p AD=0.1406p PS=2.26u
+ PD=1.12u
M$482 318 289 319 1 sg13_lv_nmos L=0.13u W=0.74u AS=0.1406p AD=0.1406p PS=1.12u
+ PD=1.12u
M$483 319 268 258 1 sg13_lv_nmos L=0.13u W=0.74u AS=0.1406p AD=0.2516p PS=1.12u
+ PD=2.16u
M$484 269 258 1 1 sg13_lv_nmos L=0.13u W=0.55u AS=0.187p AD=0.17255p PS=1.78u
+ PD=1.25u
M$485 1 269 270 1 sg13_lv_nmos L=0.13u W=0.74u AS=0.17255p AD=0.1406p PS=1.25u
+ PD=1.12u
M$486 270 348 1 1 sg13_lv_nmos L=0.13u W=0.74u AS=0.1406p AD=0.2516p PS=1.12u
+ PD=2.16u
M$487 271 530 1 1 sg13_lv_nmos L=0.13u W=0.55u AS=0.187p AD=0.14875p PS=1.78u
+ PD=1.16u
M$488 1 271 30 1 sg13_lv_nmos L=0.13u W=0.74u AS=0.14875p AD=0.2886p PS=1.16u
+ PD=2.26u
M$492 272 111 1 1 sg13_lv_nmos L=0.13u W=0.74u AS=0.2516p AD=0.2516p PS=2.16u
+ PD=2.16u
M$494 1 213 303 1 sg13_lv_nmos L=0.13u W=1.48u AS=0.3922p AD=0.2812p PS=3.28u
+ PD=2.24u
M$495 303 17 274 1 sg13_lv_nmos L=0.13u W=1.48u AS=0.2812p AD=0.2812p PS=2.24u
+ PD=2.24u
M$498 1 223 274 1 sg13_lv_nmos L=0.13u W=1.48u AS=0.2812p AD=0.3922p PS=2.24u
+ PD=3.28u
M$500 1 223 290 1 sg13_lv_nmos L=0.13u W=0.64u AS=0.15745p AD=0.1216p PS=1.175u
+ PD=1.02u
M$501 290 17 315 1 sg13_lv_nmos L=0.13u W=0.64u AS=0.1216p AD=0.0816p PS=1.02u
+ PD=0.895u
M$502 315 213 1 1 sg13_lv_nmos L=0.13u W=0.64u AS=0.0816p AD=0.2176p PS=0.895u
+ PD=1.96u
M$503 275 290 1 1 sg13_lv_nmos L=0.13u W=0.74u AS=0.2351p AD=0.15745p PS=2.16u
+ PD=1.175u
M$504 1 217 314 1 sg13_lv_nmos L=0.13u W=0.74u AS=0.2516p AD=0.1406p PS=2.16u
+ PD=1.12u
M$505 314 203 232 1 sg13_lv_nmos L=0.13u W=0.74u AS=0.1406p AD=0.2516p PS=1.12u
+ PD=2.16u
M$506 1 87 277 1 sg13_lv_nmos L=0.13u W=0.74u AS=0.2516p AD=0.1406p PS=2.16u
+ PD=1.12u
M$507 277 17 312 1 sg13_lv_nmos L=0.13u W=0.74u AS=0.1406p AD=0.1406p PS=1.12u
+ PD=1.12u
M$508 312 151 1 1 sg13_lv_nmos L=0.13u W=0.74u AS=0.1406p AD=0.2516p PS=1.12u
+ PD=2.16u
M$510 1 111 260 1 sg13_lv_nmos L=0.13u W=0.74u AS=0.2516p AD=0.2516p PS=2.16u
+ PD=2.16u
M$511 259 291 280 1 sg13_lv_nmos L=0.13u W=0.42u AS=0.1296p AD=0.0798p PS=1.52u
+ PD=0.8u
M$512 280 281 304 1 sg13_lv_nmos L=0.13u W=0.42u AS=0.0798p AD=0.2373p PS=0.8u
+ PD=1.97u
M$513 281 291 1 1 sg13_lv_nmos L=0.13u W=0.74u AS=0.2516p AD=0.317325p PS=2.16u
+ PD=1.805u
M$514 1 115 291 1 sg13_lv_nmos L=0.13u W=0.74u AS=0.317325p AD=0.2516p
+ PS=1.805u PD=2.16u
M$515 305 291 292 1 sg13_lv_nmos L=0.13u W=0.42u AS=0.1428p AD=0.12665p
+ PS=1.52u PD=1.145u
M$516 292 281 279 1 sg13_lv_nmos L=0.13u W=0.74u AS=0.12665p AD=0.3473p
+ PS=1.145u PD=2.71u
M$517 282 292 1 1 sg13_lv_nmos L=0.13u W=0.74u AS=0.2516p AD=0.1406p PS=2.16u
+ PD=1.12u
M$518 1 282 229 1 sg13_lv_nmos L=0.13u W=0.74u AS=0.1406p AD=0.2516p PS=1.12u
+ PD=2.16u
M$521 1 74 320 1 sg13_lv_nmos L=0.13u W=0.74u AS=0.2516p AD=0.2516p PS=2.16u
+ PD=2.16u
M$522 321 396 358 1 sg13_lv_nmos L=0.13u W=0.42u AS=0.1428p AD=0.0609p PS=1.52u
+ PD=0.71u
M$523 358 320 1 1 sg13_lv_nmos L=0.13u W=0.42u AS=0.0609p AD=0.1626p PS=0.71u
+ PD=1.415u
M$524 1 374 322 1 sg13_lv_nmos L=0.13u W=0.74u AS=0.1626p AD=0.2516p PS=1.415u
+ PD=2.16u
M$525 1 262 261 1 sg13_lv_nmos L=0.13u W=0.74u AS=0.1626p AD=0.2516p PS=1.415u
+ PD=2.16u
M$526 256 220 307 1 sg13_lv_nmos L=0.13u W=0.42u AS=0.1428p AD=0.0609p PS=1.52u
+ PD=0.71u
M$527 1 257 307 1 sg13_lv_nmos L=0.13u W=0.42u AS=0.1626p AD=0.0609p PS=1.415u
+ PD=0.71u
M$528 1 320 359 1 sg13_lv_nmos L=0.13u W=0.42u AS=0.1701p AD=0.0378p PS=1.65u
+ PD=0.6u
M$529 359 322 342 1 sg13_lv_nmos L=0.13u W=0.42u AS=0.0378p AD=0.1428p PS=0.6u
+ PD=1.52u
M$530 1 257 308 1 sg13_lv_nmos L=0.13u W=0.42u AS=0.1701p AD=0.0378p PS=1.65u
+ PD=0.6u
M$531 308 261 300 1 sg13_lv_nmos L=0.13u W=0.42u AS=0.0378p AD=0.1428p PS=0.6u
+ PD=1.52u
M$532 343 323 324 1 sg13_lv_nmos L=0.13u W=0.42u AS=0.12665p AD=0.1428p
+ PS=1.145u PD=1.52u
M$533 322 375 343 1 sg13_lv_nmos L=0.13u W=0.74u AS=0.3473p AD=0.12665p
+ PS=2.71u PD=1.145u
M$534 324 325 1 1 sg13_lv_nmos L=0.13u W=0.42u AS=0.1428p AD=0.0798p PS=1.52u
+ PD=0.8u
M$535 1 320 362 1 sg13_lv_nmos L=0.13u W=0.42u AS=0.0798p AD=0.0378p PS=0.8u
+ PD=0.6u
M$536 362 343 325 1 sg13_lv_nmos L=0.13u W=0.42u AS=0.0378p AD=0.1428p PS=0.6u
+ PD=1.52u
M$537 301 285 1 1 sg13_lv_nmos L=0.13u W=0.42u AS=0.1428p AD=0.0798p PS=1.52u
+ PD=0.8u
M$538 1 257 309 1 sg13_lv_nmos L=0.13u W=0.42u AS=0.0798p AD=0.0378p PS=0.8u
+ PD=0.6u
M$539 309 284 285 1 sg13_lv_nmos L=0.13u W=0.42u AS=0.0378p AD=0.1428p PS=0.6u
+ PD=1.52u
M$540 326 343 1 1 sg13_lv_nmos L=0.13u W=0.74u AS=0.2516p AD=0.1406p PS=2.16u
+ PD=1.12u
M$541 1 326 286 1 sg13_lv_nmos L=0.13u W=0.74u AS=0.1406p AD=0.2516p PS=1.12u
+ PD=2.16u
M$542 1 286 344 1 sg13_lv_nmos L=0.13u W=0.55u AS=0.374p AD=0.174625p PS=2.46u
+ PD=1.185u
M$543 1 30 344 1 sg13_lv_nmos L=0.13u W=0.55u AS=0.15245p AD=0.174625p PS=1.17u
+ PD=1.185u
M$544 1 286 363 1 sg13_lv_nmos L=0.13u W=0.74u AS=0.15245p AD=0.0888p PS=1.17u
+ PD=0.98u
M$545 363 30 287 1 sg13_lv_nmos L=0.13u W=0.74u AS=0.0888p AD=0.1628p PS=0.98u
+ PD=1.18u
M$546 287 344 1 1 sg13_lv_nmos L=0.13u W=0.74u AS=0.1628p AD=0.3108p PS=1.18u
+ PD=2.32u
M$547 1 287 364 1 sg13_lv_nmos L=0.13u W=0.74u AS=0.2516p AD=0.1406p PS=2.16u
+ PD=1.12u
M$548 364 288 345 1 sg13_lv_nmos L=0.13u W=0.74u AS=0.1406p AD=0.2516p PS=1.12u
+ PD=2.16u
M$549 1 347 368 1 sg13_lv_nmos L=0.13u W=0.74u AS=0.2886p AD=0.1406p PS=2.26u
+ PD=1.12u
M$550 368 345 367 1 sg13_lv_nmos L=0.13u W=0.74u AS=0.1406p AD=0.1406p PS=1.12u
+ PD=1.12u
M$551 367 265 327 1 sg13_lv_nmos L=0.13u W=0.74u AS=0.1406p AD=0.2516p PS=1.12u
+ PD=2.16u
M$553 1 274 351 1 sg13_lv_nmos L=0.13u W=0.74u AS=0.1898p AD=0.2516p PS=1.36u
+ PD=2.16u
M$554 1 270 351 1 sg13_lv_nmos L=0.13u W=0.74u AS=0.1898p AD=0.1406p PS=1.36u
+ PD=1.12u
M$555 351 350 328 1 sg13_lv_nmos L=0.13u W=0.74u AS=0.1406p AD=0.2516p PS=1.12u
+ PD=2.16u
M$556 329 328 370 1 sg13_lv_nmos L=0.13u W=0.42u AS=0.1428p AD=0.0609p PS=1.52u
+ PD=0.71u
M$557 370 272 1 1 sg13_lv_nmos L=0.13u W=0.42u AS=0.0609p AD=0.1626p PS=0.71u
+ PD=1.415u
M$558 1 379 330 1 sg13_lv_nmos L=0.13u W=0.74u AS=0.1626p AD=0.2516p PS=1.415u
+ PD=2.16u