* NGSPICE file created from BANDGAP_REF.ext - technology: ihp-sg13g2

.subckt BANDGAP_REF_PEX VDD GND VBGR
X0 a_n7059_10169.t5 a_3822_10479.t6 VDD.t24 VDD.t23 sg13_lv_pmos ad=1.78125p pd=9.755u as=1.78125p ps=9.755u w=9.375u l=2.08u
X1 VDD.t86 GND.t34 cap_cmim l=5u w=5u
X2 VDD.t22 a_n7059_10169.t11 VBGR.t1 VDD.t19 sg13_lv_pmos ad=0.38p pd=2.38u as=0.38p ps=2.38u w=2u l=5u
X3 a_981_18638.t4 a_n6059_11418.t9 GND.t14 GND.t13 sg13_lv_nmos ad=0.1005p pd=1.34u as=0.1005p ps=1.34u w=0.15u l=10u
X4 a_n7288_18340.t0 GND.t44 GND.t43 rppd l=38.65u w=0.71u
X5 GND.t50 a_5580_15247.t9 a_n7059_10169.t0 GND.t49 sg13_lv_nmos ad=2.448p pd=15.08u as=1.368p ps=7.58u w=7.2u l=9.75u
X6 a_n6059_10861.t5 a_n7059_10169.t8 VDD.t1 VDD.t0 sg13_lv_pmos ad=0.35625p pd=2.255u as=0.35625p ps=2.255u w=1.875u l=5u
X7 a_4707_16560.t6 VDD.t63 VDD.t64 VDD.t42 sg13_lv_pmos ad=1.2376p pd=7.96u as=1.2376p ps=7.96u w=3.64u l=3.7u
X8 a_n7059_10169.t3 a_3822_10479.t0 VDD.t34 VDD.t32 sg13_lv_pmos ad=1.78125p pd=9.755u as=3.1875p ps=19.43u w=9.375u l=2.08u
X9 VDD.t24 a_3822_10479.t5 a_n7059_10169.t2 VDD.t30 sg13_lv_pmos ad=1.78125p pd=9.755u as=1.78125p ps=9.755u w=9.375u l=2.08u
X10 VDD.t7 a_n7059_10169.t13 VBGR.t2 VDD.t26 sg13_lv_pmos ad=0.38p pd=2.38u as=0.38p ps=2.38u w=2u l=5u
X11 VDD.t89 GND.t31 cap_cmim l=5u w=5u
X12 VDD.t46 a_3822_10479.t13 a_4707_16560.t8 VDD.t45 sg13_lv_pmos ad=1.802p pd=11.28u as=1.802p ps=11.28u w=5.3u l=1.95u
X13 a_3822_10479.t7 a_3822_10479.t6 VDD.t25 VDD.t23 sg13_lv_pmos ad=1.78125p pd=9.755u as=1.78125p ps=9.755u w=9.375u l=2.08u
X14 a_5580_15247.t4 a_3630_15211.t4 GND.t5 GND.t4 sg13_lv_nmos ad=0.2448p pd=2.12u as=0.2448p ps=2.12u w=0.72u l=9.75u
X15 VDD.t83 GND.t37 cap_cmim l=5u w=5u
X16 VDD.t12 a_3822_10479.t8 a_n7059_10169.t5 VDD.t43 sg13_lv_pmos ad=1.78125p pd=9.755u as=1.78125p ps=9.755u w=9.375u l=2.08u
X17 GND.t18 a_n6059_10861.t7 a_n6059_11418.t1 GND.t17 sg13_lv_nmos ad=0.33915p pd=2.165u as=0.33915p ps=2.165u w=1.785u l=5u
X18 a_n7289_16017.t0 a_527_16281.t0 GND.t45 rppd l=38.65u w=0.5u
X19 a_4707_16560.t4 VDD.t53 VDD.t54 VDD.t42 sg13_lv_pmos ad=1.2376p pd=7.96u as=1.2376p ps=7.96u w=3.64u l=3.7u
X20 VDD.t25 a_3822_10479.t5 a_3822_10479.t4 VDD.t30 sg13_lv_pmos ad=1.78125p pd=9.755u as=1.78125p ps=9.755u w=9.375u l=2.08u
X21 a_3822_10479.t1 a_3822_10479.t0 VDD.t33 VDD.t32 sg13_lv_pmos ad=1.78125p pd=9.755u as=3.1875p ps=19.43u w=9.375u l=2.08u
X22 VDD.t15 a_3822_10479.t2 a_n7059_10169.t3 VDD.t16 sg13_lv_pmos ad=1.78125p pd=9.755u as=1.78125p ps=9.755u w=9.375u l=2.08u
X23 VDD.t11 a_3822_10479.t8 a_3822_10479.t7 VDD.t43 sg13_lv_pmos ad=1.78125p pd=9.755u as=1.78125p ps=9.755u w=9.375u l=2.08u
X24 a_n6059_11418.t6 a_n7059_10169.t8 VDD.t2 VDD.t0 sg13_lv_pmos ad=0.35625p pd=2.255u as=0.35625p ps=2.255u w=1.875u l=5u
X25 a_n7288_17727.t0 a_528_18033.t1 GND.t43 rppd l=38.65u w=0.71u
X26 a_n6059_10861.t4 a_n7059_10169.t10 VDD.t20 VDD.t73 sg13_lv_pmos ad=0.35625p pd=2.255u as=0.35625p ps=2.255u w=1.875u l=5u
X27 GND.t7 a_n7289_16545.t11 a_n7289_16545.t10 GND.t6 sg13_lv_nmos ad=0.8925p pd=5.93u as=0.49875p ps=3.005u w=2.625u l=5u
X28 a_n7288_17115.t1 a_528_16809.t1 GND.t43 rppd l=38.65u w=0.71u
X29 VDD.t87 GND.t33 cap_cmim l=5u w=5u
X30 a_n7289_16545.t7 a_n7289_16545.t6 GND.t10 GND.t22 sg13_lv_nmos ad=0.49875p pd=3.005u as=0.49875p ps=3.005u w=2.625u l=5u
X31 VDD.t14 a_3822_10479.t2 a_3822_10479.t1 VDD.t16 sg13_lv_pmos ad=1.78125p pd=9.755u as=1.78125p ps=9.755u w=9.375u l=2.08u
X32 a_n7289_15489.t1 a_527_15753.t1 GND.t45 rppd l=38.65u w=0.5u
X33 VDD.t76 GND.t34 cap_cmim l=5u w=5u
X34 a_n7289_16545.t4 a_n7289_16545.t3 GND.t12 GND.t11 sg13_lv_nmos ad=0.49875p pd=3.005u as=0.49875p ps=3.005u w=2.625u l=5u
X35 VDD.t39 a_n7059_10169.t7 a_n6059_10861.t5 VDD.t38 sg13_lv_pmos ad=0.6375p pd=4.43u as=0.35625p ps=2.255u w=1.875u l=5u
X36 a_3630_15211.t1 a_n6059_11418.t7 a_4707_16560.t1 VDD.t42 sg13_lv_pmos ad=1.2376p pd=7.96u as=1.2376p ps=7.96u w=3.64u l=3.7u
X37 a_n7289_15489.t0 a_n6059_10861.t0 GND.t45 rppd l=38.65u w=0.5u
X38 VDD.t85 GND.t35 cap_cmim l=5u w=5u
X39 a_n6059_11418.t0 a_n6059_10861.t8 GND.t18 GND.t27 sg13_lv_nmos ad=0.33915p pd=2.165u as=0.33915p ps=2.165u w=1.785u l=5u
X40 a_n7059_10169.t1 a_3822_10479.t9 VDD.t12 VDD.t10 sg13_lv_pmos ad=1.78125p pd=9.755u as=1.78125p ps=9.755u w=9.375u l=2.08u
X41 VDD.t79 GND.t40 cap_cmim l=5u w=5u
X42 a_n7289_16545.t1 a_n7289_16545.t0 GND.t16 GND.t15 sg13_lv_nmos ad=0.49875p pd=3.005u as=0.8925p ps=5.93u w=2.625u l=5u
X43 a_n6059_11418.t5 a_n7059_10169.t10 VDD.t21 VDD.t73 sg13_lv_pmos ad=0.35625p pd=2.255u as=0.35625p ps=2.255u w=1.875u l=5u
X44 VBGR.t0 a_n7059_10169.t8 VDD.t3 VDD.t0 sg13_lv_pmos ad=0.38p pd=2.38u as=0.38p ps=2.38u w=2u l=5u
X45 a_1804_15931.t1 a_981_18638.t5 VDD.t18 VDD.t8 sg13_lv_pmos ad=0.17p pd=1.68u as=0.17p ps=1.68u w=0.5u l=1u
X46 a_5580_15247.t1 a_n6059_10861.t11 a_4707_16560.t3 VDD.t42 sg13_lv_pmos ad=1.2376p pd=7.96u as=1.2376p ps=7.96u w=3.64u l=3.7u
X47 GND.t51 a_527_13669.t1 GND.t45 rppd l=38.65u w=3u
X48 a_n7059_10169.t2 a_3822_10479.t3 VDD.t15 VDD.t13 sg13_lv_pmos ad=1.78125p pd=9.755u as=1.78125p ps=9.755u w=9.375u l=2.08u
X49 a_3822_10479.t10 a_3822_10479.t9 VDD.t11 VDD.t10 sg13_lv_pmos ad=1.78125p pd=9.755u as=1.78125p ps=9.755u w=9.375u l=2.08u
X50 VDD.t40 a_n7059_10169.t7 a_n6059_11418.t6 VDD.t38 sg13_lv_pmos ad=0.6375p pd=4.43u as=0.35625p ps=2.255u w=1.875u l=5u
X51 a_981_18638.t3 a_981_18638.t2 VDD.t29 VDD.t8 sg13_lv_pmos ad=0.17p pd=1.68u as=0.17p ps=1.68u w=0.5u l=1u
X52 VDD.t49 a_3822_10479.t11 a_n7059_10169.t1 VDD.t47 sg13_lv_pmos ad=3.1875p pd=19.43u as=1.78125p ps=9.755u w=9.375u l=2.08u
X53 a_n7289_14961.t1 a_n6059_10861.t1 GND.t45 rppd l=38.65u w=0.5u
X54 GND.t20 a_n7289_16545.t8 a_n7289_16545.t7 GND.t19 sg13_lv_nmos ad=0.49875p pd=3.005u as=0.49875p ps=3.005u w=2.625u l=5u
X55 a_3822_10479.t4 a_3822_10479.t3 VDD.t14 VDD.t13 sg13_lv_pmos ad=1.78125p pd=9.755u as=1.78125p ps=9.755u w=9.375u l=2.08u
X56 VDD.t77 GND.t42 cap_cmim l=5u w=5u
X57 VDD.t48 a_3822_10479.t11 a_3822_10479.t10 VDD.t47 sg13_lv_pmos ad=3.1875p pd=19.43u as=1.78125p ps=9.755u w=9.375u l=2.08u
X58 VBGR.t3 a_n7059_10169.t10 VDD.t22 VDD.t73 sg13_lv_pmos ad=0.38p pd=2.38u as=0.38p ps=2.38u w=2u l=5u
X59 VDD.t88 GND.t32 cap_cmim l=5u w=5u
X60 a_n6059_11418.t1 a_n6059_10861.t6 GND.t24 GND.t23 sg13_lv_nmos ad=0.33915p pd=2.165u as=0.6069p ps=4.25u w=1.785u l=5u
X61 VDD.t41 a_n7059_10169.t7 VBGR.t0 VDD.t38 sg13_lv_pmos ad=0.68p pd=4.68u as=0.38p ps=2.38u w=2u l=5u
X62 GND.t1 a_5580_15247.t7 a_n7059_10169.t4 GND.t0 sg13_lv_nmos ad=1.368p pd=7.58u as=1.368p ps=7.58u w=7.2u l=9.75u
X63 a_4707_16560.t7 VDD.t67 VDD.t68 VDD.t42 sg13_lv_pmos ad=1.2376p pd=7.96u as=1.2376p ps=7.96u w=3.64u l=3.7u
X64 a_n6059_10861.t2 a_n7059_10169.t14 VDD.t70 VDD.t69 sg13_lv_pmos ad=0.35625p pd=2.255u as=0.6375p ps=4.43u w=1.875u l=5u
X65 a_n6059_10861.t3 a_n7059_10169.t12 VDD.t5 VDD.t4 sg13_lv_pmos ad=0.35625p pd=2.255u as=0.35625p ps=2.255u w=1.875u l=5u
X66 a_4707_16560.t5 VDD.t59 VDD.t60 VDD.t42 sg13_lv_pmos ad=1.2376p pd=7.96u as=1.2376p ps=7.96u w=3.64u l=3.7u
X67 VDD.t81 GND.t34 cap_cmim l=5u w=5u
X68 a_n7288_17115.t0 a_528_17421.t0 GND.t43 rppd l=38.65u w=0.71u
X69 a_n7059_10169.t0 a_5580_15247.t8 GND.t1 GND.t0 sg13_lv_nmos ad=1.368p pd=7.58u as=1.368p ps=7.58u w=7.2u l=9.75u
X70 VDD.t1 a_n7059_10169.t9 a_n6059_10861.t4 VDD.t35 sg13_lv_pmos ad=0.35625p pd=2.255u as=0.35625p ps=2.255u w=1.875u l=5u
X71 a_n6059_11418.t3 a_n7059_10169.t14 VDD.t71 VDD.t69 sg13_lv_pmos ad=0.35625p pd=2.255u as=0.6375p ps=4.43u w=1.875u l=5u
X72 VDD.t51 a_1804_15931.t3 a_n6059_11418.t2 VDD.t50 sg13_lv_pmos ad=0.104p pd=1.34u as=0.104p ps=1.34u w=0.2u l=4u
X73 a_n7289_14961.t0 a_527_14697.t0 GND.t45 rppd l=38.65u w=0.5u
X74 a_5580_15247.t5 a_n7059_10169.t6 cap_cmim l=22.29u w=22.29u
X75 VDD.t84 GND.t36 cap_cmim l=5u w=5u
X76 VDD.t52 a_981_18638.t0 a_981_18638.t1 VDD.t8 sg13_lv_pmos ad=0.17p pd=1.68u as=0.17p ps=1.68u w=0.5u l=1u
X77 VDD.t90 GND.t30 cap_cmim l=5u w=5u
X78 a_3822_10479.t12 GND.t47 GND.t46 rppd l=15u w=0.5u
X79 a_n6059_11418.t4 a_n7059_10169.t12 VDD.t6 VDD.t4 sg13_lv_pmos ad=0.35625p pd=2.255u as=0.35625p ps=2.255u w=1.875u l=5u
X80 a_n7289_14433.t1 a_527_14697.t1 GND.t45 rppd l=38.65u w=0.5u
X81 VDD.t78 GND.t41 cap_cmim l=5u w=5u
X82 a_5580_15247.t0 a_n6059_10861.t10 a_4707_16560.t2 VDD.t42 sg13_lv_pmos ad=1.2376p pd=7.96u as=1.2376p ps=7.96u w=3.64u l=3.7u
X83 VDD.t9 a_981_18638.t6 a_1804_15931.t0 VDD.t8 sg13_lv_pmos ad=0.17p pd=1.68u as=0.17p ps=1.68u w=0.5u l=1u
X84 GND.t12 a_n7289_16545.t2 a_n7289_16545.t1 GND.t25 sg13_lv_nmos ad=0.49875p pd=3.005u as=0.49875p ps=3.005u w=2.625u l=5u
X85 a_n7288_17727.t1 a_528_17421.t1 GND.t43 rppd l=38.65u w=0.71u
X86 a_n7289_16545.t10 a_n7289_16545.t9 GND.t20 GND.t48 sg13_lv_nmos ad=0.49875p pd=3.005u as=0.49875p ps=3.005u w=2.625u l=5u
X87 VDD.t2 a_n7059_10169.t9 a_n6059_11418.t5 VDD.t35 sg13_lv_pmos ad=0.35625p pd=2.255u as=0.35625p ps=2.255u w=1.875u l=5u
X88 VBGR.t4 a_528_16809.t0 GND.t43 rppd l=38.65u w=0.71u
X89 VDD.t20 a_n7059_10169.t11 a_n6059_10861.t3 VDD.t19 sg13_lv_pmos ad=0.35625p pd=2.255u as=0.35625p ps=2.255u w=1.875u l=5u
X90 VDD.t66 VDD.t65 a_3630_15211.t3 VDD.t42 sg13_lv_pmos ad=1.2376p pd=7.96u as=1.2376p ps=7.96u w=3.64u l=3.7u
X91 VBGR.t2 a_n7059_10169.t14 VDD.t72 VDD.t69 sg13_lv_pmos ad=0.38p pd=2.38u as=0.68p ps=4.68u w=2u l=5u
X92 GND.t10 a_n7289_16545.t5 a_n7289_16545.t4 GND.t9 sg13_lv_nmos ad=0.49875p pd=3.005u as=0.49875p ps=3.005u w=2.625u l=5u
X93 a_3630_15211.t0 a_n6059_11418.t8 a_4707_16560.t0 VDD.t42 sg13_lv_pmos ad=1.2376p pd=7.96u as=1.2376p ps=7.96u w=3.64u l=3.7u
X94 a_n7289_16545.t12 a_527_16281.t1 GND.t45 rppd l=38.65u w=0.5u
X95 VDD.t82 GND.t38 cap_cmim l=5u w=5u
X96 a_n7289_14433.t0 a_527_13669.t0 GND.t45 rppd l=38.65u w=0.5u
X97 VDD.t5 a_n7059_10169.t13 a_n6059_10861.t2 VDD.t26 sg13_lv_pmos ad=0.35625p pd=2.255u as=0.35625p ps=2.255u w=1.875u l=5u
X98 VDD.t58 VDD.t57 a_5580_15247.t2 VDD.t42 sg13_lv_pmos ad=1.2376p pd=7.96u as=1.2376p ps=7.96u w=3.64u l=3.7u
X99 VBGR.t1 a_n7059_10169.t12 VDD.t7 VDD.t4 sg13_lv_pmos ad=0.38p pd=2.38u as=0.38p ps=2.38u w=2u l=5u
X100 a_n7059_10169.t4 a_5580_15247.t6 GND.t21 GND.t0 sg13_lv_nmos ad=1.368p pd=7.58u as=2.448p ps=15.08u w=7.2u l=9.75u
X101 a_1804_15931.t2 GND.t26 cap_cmim l=18.2u w=18.2u
X102 VDD.t21 a_n7059_10169.t11 a_n6059_11418.t4 VDD.t19 sg13_lv_pmos ad=0.35625p pd=2.255u as=0.35625p ps=2.255u w=1.875u l=5u
X103 VDD.t80 GND.t39 cap_cmim l=5u w=5u
X104 VDD.t3 a_n7059_10169.t9 VBGR.t3 VDD.t35 sg13_lv_pmos ad=0.38p pd=2.38u as=0.38p ps=2.38u w=2u l=5u
X105 VDD.t56 VDD.t55 a_5580_15247.t3 VDD.t42 sg13_lv_pmos ad=1.2376p pd=7.96u as=1.2376p ps=7.96u w=3.64u l=3.7u
X106 GND.t29 a_n6059_10861.t9 a_n6059_11418.t0 GND.t28 sg13_lv_nmos ad=0.6069p pd=4.25u as=0.33915p ps=2.165u w=1.785u l=5u
X107 a_3630_15211.t5 a_3630_15211.t4 GND.t3 GND.t2 sg13_lv_nmos ad=0.2448p pd=2.12u as=0.2448p ps=2.12u w=0.72u l=9.75u
X108 VDD.t6 a_n7059_10169.t13 a_n6059_11418.t3 VDD.t26 sg13_lv_pmos ad=0.35625p pd=2.255u as=0.35625p ps=2.255u w=1.875u l=5u
X109 a_n7288_18340.t1 a_528_18033.t0 GND.t43 rppd l=38.65u w=0.71u
X110 a_n7289_16017.t1 a_527_15753.t0 GND.t45 rppd l=38.65u w=0.5u
X111 VDD.t62 VDD.t61 a_3630_15211.t2 VDD.t42 sg13_lv_pmos ad=1.2376p pd=7.96u as=1.2376p ps=7.96u w=3.64u l=3.7u
C0 a_n7203_14961# a_n7203_14697# 0.56632f
C1 VDD VBGR 7.16141f
C2 a_n7203_15489# a_n7203_15225# 0.56632f
C3 a_n7202_16809# a_n7203_16545# 0.56625f
C4 a_n7203_13669# VBGR 0.04028f
C5 w_1389_15644# VDD 0.08151f
C6 a_n7202_18646# a_n7202_18340# 0.56632f
C7 w_n7489_9836# VBGR 0.03187f
C8 a_n7202_17115# VDD 0.01249f
C9 a_n7202_18340# VDD 0.1303f
C10 w_3320_16060# VDD 0.97624f
C11 m3_1900_17599# VDD 0.11955f
C12 a_n7202_17421# VDD 0.01249f
C13 w_1450_16710# VDD 0.14006f
C14 a_n7203_14697# a_n7203_14433# 0.56632f
C15 a_n7202_16809# VBGR 0.06913f
C16 a_n7203_15753# a_n7203_15489# 0.56632f
C17 a_11712_10489# VDD 0.04832f
C18 a_n7203_16281# a_n7203_16017# 0.56632f
C19 a_n7202_17727# a_n7202_17421# 0.56632f
C20 a_n7202_18646# VDD 0.19813f
C21 a_n7202_18340# a_n7202_18033# 0.5628f
C22 a_n7202_17115# a_n7202_16809# 0.56632f
C23 a_n7203_15225# a_n7203_14961# 0.56632f
C24 a_n7203_13669# VDD 0.04526f
C25 a_n7203_16545# a_n7203_16281# 0.56632f
C26 a_n7202_17727# VDD 0.0906f
C27 w_n7489_9836# VDD 0.44118f
C28 a_n7202_18033# VDD 0.10885f
C29 w_3320_10081# VDD 0.29949f
C30 a_n7203_16017# a_n7203_15753# 0.56632f
C31 a_n7202_16809# VDD 0.01247f
C32 a_n7202_17421# a_n7202_17115# 0.56632f
C33 a_n7202_18033# a_n7202_17727# 0.56632f
C34 w_8745_13831# VDD 0.12231f
C35 a_n7203_14433# a_n7203_13669# 0.56632f
R0 VBGR.n3 VBGR.t4 13.8357
R1 VBGR.n3 VBGR.n2 5.33747
R2 VBGR.n0 VBGR.t0 5.20293
R3 VBGR.n2 VBGR.t2 4.72949
R4 VBGR.n1 VBGR.t1 4.72949
R5 VBGR.n0 VBGR.t3 4.72949
R6 VBGR.n1 VBGR.n0 0.47394
R7 VBGR.n2 VBGR.n1 0.47394
R8 VBGR VBGR.n3 0.0838652
R9 VDD.n1332 VDD.n706 18.6678
R10 VDD.n1269 VDD.n713 18.6678
R11 VDD.n1499 VDD.n710 18.6678
R12 VDD.n1506 VDD.n707 18.6678
R13 VDD.n1485 VDD.n718 18.6678
R14 VDD.n775 VDD.n717 18.6678
R15 VDD.n1492 VDD.n714 18.6678
R16 VDD.n1419 VDD.n751 18.6678
R17 VDD.n845 VDD.n749 18.6678
R18 VDD.n1424 VDD.n748 18.6678
R19 VDD.n1426 VDD.n747 18.6678
R20 VDD.n808 VDD.n746 18.6678
R21 VDD.n1438 VDD.n741 18.6678
R22 VDD.n1440 VDD.n740 18.6678
R23 VDD.n826 VDD.n739 18.6678
R24 VDD.n1447 VDD.n736 18.6678
R25 VDD.n804 VDD.n734 18.6678
R26 VDD.n1452 VDD.n733 18.6678
R27 VDD.n1454 VDD.n732 18.6678
R28 VDD.n798 VDD.n731 18.6678
R29 VDD.n1460 VDD.n728 18.6678
R30 VDD.n780 VDD.n721 18.6678
R31 VDD.n1413 VDD.n1336 18.6678
R32 VDD.n755 VDD.n752 18.6678
R33 VDD.n1384 VDD.t51 17.3157
R34 VDD.n1355 VDD.t9 17.3041
R35 VDD.n1349 VDD.t52 17.3041
R36 VDD.n1364 VDD.t18 17.3041
R37 VDD.n1366 VDD.t29 17.3041
R38 VDD.t71 VDD.n236 17.0005
R39 VDD.t71 VDD.n234 17.0005
R40 VDD.t71 VDD.n233 17.0005
R41 VDD.n237 VDD.t71 17.0005
R42 VDD.t71 VDD.n235 17.0005
R43 VDD.t70 VDD.n226 17.0005
R44 VDD.t70 VDD.n224 17.0005
R45 VDD.t70 VDD.n223 17.0005
R46 VDD.n227 VDD.t70 17.0005
R47 VDD.t70 VDD.n225 17.0005
R48 VDD.t72 VDD.n216 17.0005
R49 VDD.t72 VDD.n214 17.0005
R50 VDD.t72 VDD.n213 17.0005
R51 VDD.t72 VDD.n212 17.0005
R52 VDD.n217 VDD.t72 17.0005
R53 VDD.t72 VDD.n215 17.0005
R54 VDD.n249 VDD.n199 17.0005
R55 VDD.n240 VDD.n239 17.0005
R56 VDD.t41 VDD.n465 17.0005
R57 VDD.t41 VDD.n462 17.0005
R58 VDD.t41 VDD.n464 17.0005
R59 VDD.t41 VDD.n463 17.0005
R60 VDD.n466 VDD.t41 17.0005
R61 VDD.t41 VDD.n461 17.0005
R62 VDD.t39 VDD.n455 17.0005
R63 VDD.t39 VDD.n452 17.0005
R64 VDD.n456 VDD.t39 17.0005
R65 VDD.t39 VDD.n454 17.0005
R66 VDD.t39 VDD.n453 17.0005
R67 VDD.t40 VDD.n448 17.0005
R68 VDD.t40 VDD.n447 17.0005
R69 VDD.t40 VDD.n445 17.0005
R70 VDD.n449 VDD.t40 17.0005
R71 VDD.t40 VDD.n446 17.0005
R72 VDD.n1065 VDD.t33 17.0005
R73 VDD.n1063 VDD.t33 17.0005
R74 VDD.n1061 VDD.t33 17.0005
R75 VDD.n1059 VDD.t33 17.0005
R76 VDD.n1057 VDD.t33 17.0005
R77 VDD.n1055 VDD.t33 17.0005
R78 VDD.n1053 VDD.t33 17.0005
R79 VDD.n1051 VDD.t33 17.0005
R80 VDD.n1049 VDD.t33 17.0005
R81 VDD.n1047 VDD.t33 17.0005
R82 VDD.n1045 VDD.t33 17.0005
R83 VDD.n1043 VDD.t33 17.0005
R84 VDD.n1041 VDD.t33 17.0005
R85 VDD.n1039 VDD.t33 17.0005
R86 VDD.n1030 VDD.t33 17.0005
R87 VDD.n1032 VDD.t33 17.0005
R88 VDD.n1027 VDD.t33 17.0005
R89 VDD.n1219 VDD.t33 17.0005
R90 VDD.n1034 VDD.t33 17.0005
R91 VDD.n1036 VDD.t33 17.0005
R92 VDD.n1068 VDD.t33 17.0005
R93 VDD.n1067 VDD.t33 17.0005
R94 VDD.n1217 VDD.n1028 17.0005
R95 VDD.n1142 VDD.n946 17.0005
R96 VDD.t34 VDD.n1076 17.0005
R97 VDD.n1129 VDD.t34 17.0005
R98 VDD.n1131 VDD.t34 17.0005
R99 VDD.n1134 VDD.t34 17.0005
R100 VDD.n1133 VDD.t34 17.0005
R101 VDD.n1125 VDD.t34 17.0005
R102 VDD.t34 VDD.n1075 17.0005
R103 VDD.t34 VDD.n1083 17.0005
R104 VDD.t34 VDD.n1085 17.0005
R105 VDD.t34 VDD.n1082 17.0005
R106 VDD.t34 VDD.n1086 17.0005
R107 VDD.t34 VDD.n1081 17.0005
R108 VDD.t34 VDD.n1087 17.0005
R109 VDD.t34 VDD.n1080 17.0005
R110 VDD.t34 VDD.n1088 17.0005
R111 VDD.t34 VDD.n1079 17.0005
R112 VDD.t34 VDD.n1089 17.0005
R113 VDD.t34 VDD.n1078 17.0005
R114 VDD.t34 VDD.n1090 17.0005
R115 VDD.t34 VDD.n1077 17.0005
R116 VDD.n1127 VDD.t34 17.0005
R117 VDD.t34 VDD.n1084 17.0005
R118 VDD.n1119 VDD.t49 17.0005
R119 VDD.t49 VDD.n1105 17.0005
R120 VDD.t49 VDD.n1118 17.0005
R121 VDD.t49 VDD.n1106 17.0005
R122 VDD.t49 VDD.n1117 17.0005
R123 VDD.t49 VDD.n1107 17.0005
R124 VDD.t49 VDD.n1116 17.0005
R125 VDD.t49 VDD.n1108 17.0005
R126 VDD.t49 VDD.n1115 17.0005
R127 VDD.t49 VDD.n1109 17.0005
R128 VDD.t49 VDD.n1114 17.0005
R129 VDD.t49 VDD.n1110 17.0005
R130 VDD.t49 VDD.n1113 17.0005
R131 VDD.t49 VDD.n1111 17.0005
R132 VDD.t49 VDD.n1112 17.0005
R133 VDD.t49 VDD.n1098 17.0005
R134 VDD.t49 VDD.n1099 17.0005
R135 VDD.t49 VDD.n1100 17.0005
R136 VDD.t49 VDD.n1101 17.0005
R137 VDD.t49 VDD.n1102 17.0005
R138 VDD.t49 VDD.n1103 17.0005
R139 VDD.t49 VDD.n1104 17.0005
R140 VDD.n1239 VDD.n1238 17.0005
R141 VDD.n1237 VDD.n1235 17.0005
R142 VDD.n1018 VDD.t48 17.0005
R143 VDD.n1020 VDD.t48 17.0005
R144 VDD.n1022 VDD.t48 17.0005
R145 VDD.n1024 VDD.t48 17.0005
R146 VDD.n1226 VDD.t48 17.0005
R147 VDD.n1228 VDD.t48 17.0005
R148 VDD.n1230 VDD.t48 17.0005
R149 VDD.n992 VDD.t48 17.0005
R150 VDD.n994 VDD.t48 17.0005
R151 VDD.n996 VDD.t48 17.0005
R152 VDD.n998 VDD.t48 17.0005
R153 VDD.n1000 VDD.t48 17.0005
R154 VDD.n1002 VDD.t48 17.0005
R155 VDD.n1004 VDD.t48 17.0005
R156 VDD.n1006 VDD.t48 17.0005
R157 VDD.n1008 VDD.t48 17.0005
R158 VDD.n1010 VDD.t48 17.0005
R159 VDD.n1012 VDD.t48 17.0005
R160 VDD.n1014 VDD.t48 17.0005
R161 VDD.n1016 VDD.t48 17.0005
R162 VDD.n990 VDD.t48 17.0005
R163 VDD.n1217 VDD.n1216 17.0005
R164 VDD.n1334 VDD.n802 17.0005
R165 VDD.n1334 VDD.n790 17.0005
R166 VDD.n1334 VDD.n789 17.0005
R167 VDD.n1334 VDD.n788 17.0005
R168 VDD.n1334 VDD.n787 17.0005
R169 VDD.n1334 VDD.n786 17.0005
R170 VDD.n1334 VDD.n785 17.0005
R171 VDD.n1334 VDD.n784 17.0005
R172 VDD.n1334 VDD.n783 17.0005
R173 VDD.n1334 VDD.n782 17.0005
R174 VDD.n1334 VDD.n817 17.0005
R175 VDD.n1334 VDD.n816 17.0005
R176 VDD.n1334 VDD.n815 17.0005
R177 VDD.n1334 VDD.n814 17.0005
R178 VDD.n1334 VDD.n813 17.0005
R179 VDD.n1334 VDD.n812 17.0005
R180 VDD.n1334 VDD.n811 17.0005
R181 VDD.n1334 VDD.n810 17.0005
R182 VDD.n1334 VDD.n806 17.0005
R183 VDD.n1334 VDD.n830 17.0005
R184 VDD.n1334 VDD.n849 17.0005
R185 VDD.n1334 VDD.n848 17.0005
R186 VDD.n1334 VDD.n837 17.0005
R187 VDD.n1334 VDD.n836 17.0005
R188 VDD.n1334 VDD.n835 17.0005
R189 VDD.n1334 VDD.n834 17.0005
R190 VDD.n1334 VDD.n833 17.0005
R191 VDD.n1334 VDD.n832 17.0005
R192 VDD.n1334 VDD.n831 17.0005
R193 VDD.n1334 VDD.n855 17.0005
R194 VDD.n1334 VDD.n856 17.0005
R195 VDD.n1334 VDD.n858 17.0005
R196 VDD.n1334 VDD.n859 17.0005
R197 VDD.n1334 VDD.n860 17.0005
R198 VDD.n1334 VDD.n862 17.0005
R199 VDD.n1334 VDD.n879 17.0005
R200 VDD.n1334 VDD.n880 17.0005
R201 VDD.n1334 VDD.n882 17.0005
R202 VDD.n1334 VDD.n883 17.0005
R203 VDD.n1334 VDD.n884 17.0005
R204 VDD.n1334 VDD.n885 17.0005
R205 VDD.n1334 VDD.n886 17.0005
R206 VDD.n1334 VDD.n887 17.0005
R207 VDD.t46 VDD.n1309 17.0005
R208 VDD.t46 VDD.n1284 17.0005
R209 VDD.t46 VDD.n1306 17.0005
R210 VDD.t46 VDD.n1285 17.0005
R211 VDD.t46 VDD.n1303 17.0005
R212 VDD.t46 VDD.n1286 17.0005
R213 VDD.t46 VDD.n1300 17.0005
R214 VDD.t46 VDD.n1287 17.0005
R215 VDD.t46 VDD.n1297 17.0005
R216 VDD.t46 VDD.n1288 17.0005
R217 VDD.t46 VDD.n1294 17.0005
R218 VDD.t46 VDD.n1289 17.0005
R219 VDD.t46 VDD.n1291 17.0005
R220 VDD.n1310 VDD.t46 17.0005
R221 VDD.t46 VDD.n1283 17.0005
R222 VDD.n1334 VDD.n1254 17.0005
R223 VDD.n1334 VDD.n1255 17.0005
R224 VDD.n1334 VDD.n1256 17.0005
R225 VDD.n1334 VDD.n1257 17.0005
R226 VDD.n1334 VDD.n1258 17.0005
R227 VDD.n1334 VDD.n1259 17.0005
R228 VDD.n1334 VDD.n1260 17.0005
R229 VDD.n1334 VDD.n1261 17.0005
R230 VDD.n1334 VDD.n768 17.0005
R231 VDD.n1334 VDD.n767 17.0005
R232 VDD.n1334 VDD.n766 17.0005
R233 VDD.n1334 VDD.n765 17.0005
R234 VDD.n1334 VDD.n764 17.0005
R235 VDD.n1334 VDD.n763 17.0005
R236 VDD.n1334 VDD.n762 17.0005
R237 VDD.n1334 VDD.n761 17.0005
R238 VDD.n1334 VDD.n760 17.0005
R239 VDD.n1334 VDD.n759 17.0005
R240 VDD.n1194 VDD.t67 15.0005
R241 VDD.t67 VDD.n1190 15.0005
R242 VDD.t67 VDD.n1189 15.0005
R243 VDD.t67 VDD.n1191 15.0005
R244 VDD.t67 VDD.n1188 15.0005
R245 VDD.t67 VDD.n1192 15.0005
R246 VDD.t67 VDD.n1187 15.0005
R247 VDD.t67 VDD.n1193 15.0005
R248 VDD.n801 VDD.t59 15.0005
R249 VDD.t59 VDD.n795 15.0005
R250 VDD.t59 VDD.n794 15.0005
R251 VDD.t59 VDD.n796 15.0005
R252 VDD.t59 VDD.n793 15.0005
R253 VDD.t59 VDD.n797 15.0005
R254 VDD.t59 VDD.n792 15.0005
R255 VDD.t59 VDD.n799 15.0005
R256 VDD.t59 VDD.n791 15.0005
R257 VDD.t59 VDD.n800 15.0005
R258 VDD.t57 VDD.n823 15.0005
R259 VDD.t57 VDD.n824 15.0005
R260 VDD.t57 VDD.n821 15.0005
R261 VDD.t57 VDD.n825 15.0005
R262 VDD.t57 VDD.n820 15.0005
R263 VDD.t57 VDD.n827 15.0005
R264 VDD.t57 VDD.n819 15.0005
R265 VDD.t57 VDD.n828 15.0005
R266 VDD.t57 VDD.n818 15.0005
R267 VDD.n829 VDD.t57 15.0005
R268 VDD.t53 VDD.n842 15.0005
R269 VDD.t53 VDD.n841 15.0005
R270 VDD.t53 VDD.n843 15.0005
R271 VDD.t53 VDD.n840 15.0005
R272 VDD.t53 VDD.n844 15.0005
R273 VDD.t53 VDD.n846 15.0005
R274 VDD.t53 VDD.n838 15.0005
R275 VDD.n847 VDD.t53 15.0005
R276 VDD.t63 VDD.n866 15.0005
R277 VDD.t63 VDD.n867 15.0005
R278 VDD.t63 VDD.n865 15.0005
R279 VDD.t63 VDD.n868 15.0005
R280 VDD.t63 VDD.n864 15.0005
R281 VDD.t63 VDD.n869 15.0005
R282 VDD.t63 VDD.n863 15.0005
R283 VDD.n870 VDD.t63 15.0005
R284 VDD.t55 VDD.n1279 15.0005
R285 VDD.t55 VDD.n1281 15.0005
R286 VDD.t55 VDD.n1278 15.0005
R287 VDD.t55 VDD.n1317 15.0005
R288 VDD.t55 VDD.n1277 15.0005
R289 VDD.t55 VDD.n1318 15.0005
R290 VDD.n1320 VDD.t55 15.0005
R291 VDD.t55 VDD.n1319 15.0005
R292 VDD.n779 VDD.t61 15.0005
R293 VDD.t61 VDD.n773 15.0005
R294 VDD.t61 VDD.n772 15.0005
R295 VDD.t61 VDD.n774 15.0005
R296 VDD.t61 VDD.n771 15.0005
R297 VDD.t61 VDD.n776 15.0005
R298 VDD.t61 VDD.n770 15.0005
R299 VDD.t61 VDD.n777 15.0005
R300 VDD.t61 VDD.n769 15.0005
R301 VDD.t61 VDD.n778 15.0005
R302 VDD.n1399 VDD.n1343 9.63299
R303 VDD.n1352 VDD.n1342 9.63299
R304 VDD.n1358 VDD.n1344 9.63227
R305 VDD.n1137 VDD.n1136 9.0005
R306 VDD.n1136 VDD.n1135 9.0005
R307 VDD.n1136 VDD.n1132 9.0005
R308 VDD.n1136 VDD.n1130 9.0005
R309 VDD.n1136 VDD.n1128 9.0005
R310 VDD.n1136 VDD.n1126 9.0005
R311 VDD.n1121 VDD.n1093 9.0005
R312 VDD.n1121 VDD.n1094 9.0005
R313 VDD.n1121 VDD.n1092 9.0005
R314 VDD.n1121 VDD.n1095 9.0005
R315 VDD.n1121 VDD.n1091 9.0005
R316 VDD.n1121 VDD.n1120 9.0005
R317 VDD.n1215 VDD.n1071 8.5285
R318 VDD.n1390 VDD.n1387 8.5089
R319 VDD.n1312 VDD.n1266 8.5089
R320 VDD.n246 VDD.n200 8.501
R321 VDD.n243 VDD.n242 8.501
R322 VDD.n1239 VDD.n966 8.501
R323 VDD.n1239 VDD.n968 8.501
R324 VDD.n1239 VDD.n971 8.501
R325 VDD.n1239 VDD.n974 8.501
R326 VDD.n1239 VDD.n976 8.501
R327 VDD.n1239 VDD.n918 8.501
R328 VDD.n1239 VDD.n917 8.501
R329 VDD.n1239 VDD.n916 8.501
R330 VDD.n1239 VDD.n915 8.501
R331 VDD.n1239 VDD.n914 8.501
R332 VDD.n1295 VDD.n1266 8.50095
R333 VDD.n1239 VDD.n953 8.50093
R334 VDD.n1239 VDD.n952 8.50093
R335 VDD.n1239 VDD.n951 8.50093
R336 VDD.n1239 VDD.n950 8.50093
R337 VDD.n1239 VDD.n949 8.50093
R338 VDD.n1239 VDD.n948 8.50093
R339 VDD.n1239 VDD.n945 8.50093
R340 VDD.n1017 VDD.n891 8.50093
R341 VDD.n1019 VDD.n891 8.50093
R342 VDD.n1021 VDD.n891 8.50093
R343 VDD.n1023 VDD.n891 8.50093
R344 VDD.n1025 VDD.n891 8.50093
R345 VDD.n1225 VDD.n891 8.50093
R346 VDD.n1227 VDD.n891 8.50093
R347 VDD.n1229 VDD.n891 8.50093
R348 VDD.n1231 VDD.n891 8.50093
R349 VDD.n1239 VDD.n932 8.50093
R350 VDD.n1239 VDD.n933 8.50093
R351 VDD.n1239 VDD.n934 8.50093
R352 VDD.n1239 VDD.n935 8.50093
R353 VDD.n1239 VDD.n936 8.50093
R354 VDD.n1239 VDD.n937 8.50093
R355 VDD.n1239 VDD.n938 8.50093
R356 VDD.n1239 VDD.n939 8.50093
R357 VDD.n1239 VDD.n940 8.50093
R358 VDD.n1239 VDD.n941 8.50093
R359 VDD.n1239 VDD.n942 8.50093
R360 VDD.n1239 VDD.n943 8.50093
R361 VDD.n1239 VDD.n944 8.50093
R362 VDD.n1239 VDD.n954 8.50093
R363 VDD.n991 VDD.n891 8.50093
R364 VDD.n993 VDD.n891 8.50093
R365 VDD.n995 VDD.n891 8.50093
R366 VDD.n997 VDD.n891 8.50093
R367 VDD.n999 VDD.n891 8.50093
R368 VDD.n1001 VDD.n891 8.50093
R369 VDD.n1003 VDD.n891 8.50093
R370 VDD.n1005 VDD.n891 8.50093
R371 VDD.n1007 VDD.n891 8.50093
R372 VDD.n1009 VDD.n891 8.50093
R373 VDD.n1011 VDD.n891 8.50093
R374 VDD.n1013 VDD.n891 8.50093
R375 VDD.n1015 VDD.n891 8.50093
R376 VDD.n1296 VDD.n1266 8.50089
R377 VDD.n1292 VDD.n1266 8.50089
R378 VDD.n1293 VDD.n1266 8.50089
R379 VDD.n1290 VDD.n1266 8.50089
R380 VDD.n1282 VDD.n1266 8.50089
R381 VDD.n1325 VDD.n1266 8.50062
R382 VDD.n244 VDD.n207 8.5005
R383 VDD.n244 VDD.n208 8.5005
R384 VDD.n244 VDD.n209 8.5005
R385 VDD.n244 VDD.n210 8.5005
R386 VDD.n244 VDD.n211 8.5005
R387 VDD.n244 VDD.n219 8.5005
R388 VDD.n244 VDD.n220 8.5005
R389 VDD.n244 VDD.n221 8.5005
R390 VDD.n244 VDD.n222 8.5005
R391 VDD.n244 VDD.n229 8.5005
R392 VDD.n244 VDD.n230 8.5005
R393 VDD.n244 VDD.n232 8.5005
R394 VDD.n244 VDD.n199 8.5005
R395 VDD.n206 VDD.n199 8.5005
R396 VDD.n244 VDD.n192 8.5005
R397 VDD.n477 VDD.n192 8.5005
R398 VDD.n240 VDD.n201 8.5005
R399 VDD.n468 VDD.n443 8.5005
R400 VDD.n468 VDD.n441 8.5005
R401 VDD.n468 VDD.n450 8.5005
R402 VDD.n468 VDD.n451 8.5005
R403 VDD.n468 VDD.n439 8.5005
R404 VDD.n468 VDD.n457 8.5005
R405 VDD.n468 VDD.n438 8.5005
R406 VDD.n468 VDD.n458 8.5005
R407 VDD.n468 VDD.n436 8.5005
R408 VDD.n468 VDD.n459 8.5005
R409 VDD.n468 VDD.n435 8.5005
R410 VDD.n468 VDD.n460 8.5005
R411 VDD.n469 VDD.n325 8.5005
R412 VDD.n309 VDD.n308 8.5005
R413 VDD.n308 VDD.n195 8.5005
R414 VDD.n1381 VDD.n1371 8.5005
R415 VDD.n1390 VDD.n1363 8.5005
R416 VDD.n1390 VDD.n1347 8.5005
R417 VDD.n1391 VDD.n1390 8.5005
R418 VDD.n1217 VDD.n1066 8.5005
R419 VDD.n1217 VDD.n1064 8.5005
R420 VDD.n1217 VDD.n1062 8.5005
R421 VDD.n1217 VDD.n1060 8.5005
R422 VDD.n1217 VDD.n1058 8.5005
R423 VDD.n1217 VDD.n1056 8.5005
R424 VDD.n1217 VDD.n1054 8.5005
R425 VDD.n1217 VDD.n1052 8.5005
R426 VDD.n1217 VDD.n1050 8.5005
R427 VDD.n1217 VDD.n1048 8.5005
R428 VDD.n1217 VDD.n1046 8.5005
R429 VDD.n1217 VDD.n1044 8.5005
R430 VDD.n1217 VDD.n1042 8.5005
R431 VDD.n1217 VDD.n1038 8.5005
R432 VDD.n1217 VDD.n1029 8.5005
R433 VDD.n1217 VDD.n1031 8.5005
R434 VDD.n1217 VDD.n1033 8.5005
R435 VDD.n1218 VDD.n1217 8.5005
R436 VDD.n1217 VDD.n1026 8.5005
R437 VDD.n1217 VDD.n1035 8.5005
R438 VDD.n1217 VDD.n1037 8.5005
R439 VDD.n1217 VDD.n1069 8.5005
R440 VDD.n1239 VDD.n901 8.5005
R441 VDD.n1239 VDD.n902 8.5005
R442 VDD.n1239 VDD.n903 8.5005
R443 VDD.n1239 VDD.n904 8.5005
R444 VDD.n1239 VDD.n905 8.5005
R445 VDD.n1239 VDD.n906 8.5005
R446 VDD.n1239 VDD.n907 8.5005
R447 VDD.n1239 VDD.n908 8.5005
R448 VDD.n1239 VDD.n909 8.5005
R449 VDD.n1239 VDD.n910 8.5005
R450 VDD.n1239 VDD.n911 8.5005
R451 VDD.n1239 VDD.n912 8.5005
R452 VDD.n1239 VDD.n913 8.5005
R453 VDD.n1239 VDD.n977 8.5005
R454 VDD.n1239 VDD.n984 8.5005
R455 VDD.n1239 VDD.n983 8.5005
R456 VDD.n1239 VDD.n982 8.5005
R457 VDD.n1239 VDD.n981 8.5005
R458 VDD.n1239 VDD.n980 8.5005
R459 VDD.n1239 VDD.n979 8.5005
R460 VDD.n1239 VDD.n978 8.5005
R461 VDD.n1239 VDD.n900 8.5005
R462 VDD.n1208 VDD.n1207 8.5005
R463 VDD.n1207 VDD.n1206 8.5005
R464 VDD.n1204 VDD.n1203 8.5005
R465 VDD.n1203 VDD.n1202 8.5005
R466 VDD.n1200 VDD.n1199 8.5005
R467 VDD.n1199 VDD.n1198 8.5005
R468 VDD.n898 VDD.n891 8.5005
R469 VDD.n964 VDD.n891 8.5005
R470 VDD.n965 VDD.n891 8.5005
R471 VDD.t47 VDD.n891 8.5005
R472 VDD.n967 VDD.n891 8.5005
R473 VDD.n969 VDD.n891 8.5005
R474 VDD.n970 VDD.n891 8.5005
R475 VDD.n972 VDD.n891 8.5005
R476 VDD.n973 VDD.n891 8.5005
R477 VDD.n975 VDD.n891 8.5005
R478 VDD.n1307 VDD.n1266 8.5005
R479 VDD.n1308 VDD.n1266 8.5005
R480 VDD.n1304 VDD.n1266 8.5005
R481 VDD.n1305 VDD.n1266 8.5005
R482 VDD.n1301 VDD.n1266 8.5005
R483 VDD.n1302 VDD.n1266 8.5005
R484 VDD.n1298 VDD.n1266 8.5005
R485 VDD.n1299 VDD.n1266 8.5005
R486 VDD.n1390 VDD.n1359 8.50005
R487 VDD.n1390 VDD.n1369 8.49985
R488 VDD.n1390 VDD.n1348 8.49985
R489 VDD.n1390 VDD.n1357 8.49985
R490 VDD.n1224 VDD.t48 8.49627
R491 VDD.n1334 VDD.n1262 8.49537
R492 VDD.n1334 VDD.n857 8.49531
R493 VDD.n1334 VDD.n861 8.49531
R494 VDD.n1334 VDD.n881 8.49531
R495 VDD.n1334 VDD.n888 8.48461
R496 VDD.n1334 VDD.n807 8.48078
R497 VDD.n1334 VDD.n872 8.47359
R498 VDD.n1334 VDD.n875 8.47359
R499 VDD.n1334 VDD.n756 8.47321
R500 VDD.t53 VDD.n839 7.49575
R501 VDD.t55 VDD.n1280 7.49575
R502 VDD.n1393 VDD.n1392 7.07444
R503 VDD.n1405 VDD.n1339 7.0721
R504 VDD.n246 VDD.n245 5.66778
R505 VDD.n242 VDD.n193 5.66778
R506 VDD.n477 VDD.n323 5.66717
R507 VDD.n469 VDD.n468 5.66717
R508 VDD.n1142 VDD.n1028 5.66717
R509 VDD.n1238 VDD.n1237 5.66717
R510 VDD.n1235 VDD.n891 5.66717
R511 VDD.n1151 VDD.n1149 5.66717
R512 VDD.n1371 VDD.n1370 5.6553
R513 VDD.n1334 VDD.n850 5.62097
R514 VDD.n1334 VDD.n876 5.61923
R515 VDD.n1334 VDD.n877 5.61923
R516 VDD.n1335 VDD.n1334 5.61856
R517 VDD.n1334 VDD.n758 5.61856
R518 VDD.n1334 VDD.n757 5.61856
R519 VDD.n1392 VDD.n1391 4.53951
R520 VDD.n1347 VDD.n1339 4.53875
R521 VDD.n1392 VDD.n1345 4.53035
R522 VDD.n1351 VDD.n1339 4.53035
R523 VDD.n1232 VDD.t48 4.31972
R524 VDD.n322 VDD.n321 4.26309
R525 VDD.n434 VDD.n433 4.25113
R526 VDD.n477 VDD.n190 4.251
R527 VDD.n477 VDD.n189 4.251
R528 VDD.n477 VDD.n188 4.251
R529 VDD.n477 VDD.n184 4.251
R530 VDD.n477 VDD.n183 4.251
R531 VDD.n477 VDD.n182 4.251
R532 VDD.n477 VDD.n181 4.251
R533 VDD.n477 VDD.n180 4.251
R534 VDD.n477 VDD.n179 4.251
R535 VDD.n477 VDD.n178 4.251
R536 VDD.n477 VDD.n177 4.251
R537 VDD.n477 VDD.n176 4.251
R538 VDD.n477 VDD.n175 4.251
R539 VDD.n477 VDD.n174 4.251
R540 VDD.n477 VDD.n173 4.251
R541 VDD.n477 VDD.n171 4.251
R542 VDD.n478 VDD.n477 4.251
R543 VDD.n477 VDD.n142 4.251
R544 VDD.n477 VDD.n170 4.251
R545 VDD.n477 VDD.n169 4.251
R546 VDD.n477 VDD.n168 4.251
R547 VDD.n477 VDD.n167 4.251
R548 VDD.n477 VDD.n166 4.251
R549 VDD.n477 VDD.n165 4.251
R550 VDD.n477 VDD.n164 4.251
R551 VDD.n477 VDD.n163 4.251
R552 VDD.n477 VDD.n162 4.251
R553 VDD.n477 VDD.n161 4.251
R554 VDD.n477 VDD.n160 4.251
R555 VDD.n477 VDD.n159 4.251
R556 VDD.n477 VDD.n158 4.251
R557 VDD.n477 VDD.n157 4.251
R558 VDD.n477 VDD.n155 4.251
R559 VDD.n477 VDD.n154 4.251
R560 VDD.n477 VDD.n153 4.251
R561 VDD.n477 VDD.n152 4.251
R562 VDD.n477 VDD.n151 4.251
R563 VDD.n477 VDD.n150 4.251
R564 VDD.n477 VDD.n149 4.251
R565 VDD.n477 VDD.n148 4.251
R566 VDD.n477 VDD.n147 4.251